! RI PBE def2-SVP def2-SVP/J NBO PAL2
% maxcore 2000
% output
    # printlevel mini
    print[ P_Basis ] 0
    print[ P_SCFInfo ] 1
    print[ P_SCFIterInfo ] 1
    print[ P_OrbEn ] 0
    print[ P_Cartesian ] 0
end
*xyz 0 1
 C        0.9959140000     0.0115110000    -0.0992210000 
 C        2.5146860000     0.0114660000    -0.0992260000 
 H        0.5972590000     0.7298770000    -0.8195960000 
 H        0.5972590000     0.2761700000     0.8831060000 
 H        0.5972780000    -0.9715310000    -0.3611670000 
 H        2.9133220000     0.9945090000     0.1627190000 
 H        2.9133410000    -0.2531920000    -1.0815530000 
 H        2.9133410000    -0.7069000000     0.6211480000 
*
