! RI PBE def2-SVP def2-SVP/J NBO PAL2
% maxcore 2000
% output
    # printlevel mini
    print[ P_Basis ] 0
    print[ P_SCFInfo ] 1
    print[ P_SCFIterInfo ] 1
    print[ P_OrbEn ] 0
    print[ P_Cartesian ] 0
end
*xyz 0 1
 C        0.8992310000    -0.0226000000     0.0041000000 
 C        2.0962690000    -0.0226000000     0.0041000000 
 H       -0.1655500000    -0.0226000000     0.0041000000 
 H        3.1610500000    -0.0226000000     0.0041000000 
*
