! RI PBE def2-SVP def2-SVP/J NBO PAL2
% maxcore 2000
% output
    # printlevel mini
    print[ P_Basis ] 0
    print[ P_SCFInfo ] 1
    print[ P_SCFIterInfo ] 1
    print[ P_OrbEn ] 0
    print[ P_Cartesian ] 0
end
*xyz 0 1
 C        1.0471310000    -0.0428150000    -0.0710170000 
 C        2.5456410000    -0.0629630000    -0.0090370000 
 C        3.2570940000    -0.4086630000     1.0547360000 
 H        0.6893540000     0.2755760000    -1.0507380000 
 H        0.6280940000     0.6414010000     0.6715800000 
 H        0.6280870000    -1.0328640000     0.1274780000 
 H        3.0765530000     0.2303860000    -0.9117350000 
 H        2.7835860000    -0.7108440000     1.9846080000 
 H        4.3405710000    -0.4028150000     1.0367250000 
*
