! RI PBE def2-SVP def2-SVP/J NBO PAL2
% maxcore 2000
% output
    # printlevel mini
    print[ P_Basis ] 0
    print[ P_SCFInfo ] 1
    print[ P_SCFIterInfo ] 1
    print[ P_OrbEn ] 0
    print[ P_Cartesian ] 0
end
*xyz 0 1
 C        1.0258910000     0.0842970000     0.0424690000 
 C        2.4755120000     0.0842010000     0.0424470000 
 C        3.6755110000     0.0842920000     0.0424930000 
 H        0.6364800000    -0.6783080000     0.7210310000 
 H        0.6364890000    -0.1219760000    -0.9572670000 
 H        0.6366780000     1.0533080000     0.3636840000 
 H        4.7395480000     0.0843960000     0.0425420000 
*
