! RI PBE def2-SVP def2-SVP/J NBO PAL2
% maxcore 2000
% output
    # printlevel mini
    print[ P_Basis ] 0
    print[ P_SCFInfo ] 1
    print[ P_SCFIterInfo ] 1
    print[ P_OrbEn ] 0
    print[ P_Cartesian ] 0
end
*xyz 0 1
 C       -0.0616340000     0.8577240000     0.0600460000 
 C       -0.7661020000    -0.4302090000    -0.0728000000 
 N        0.6841430000    -0.3953870000     0.0768290000 
 H       -0.0826730000     1.3893310000     1.0050950000 
 H        0.0035310000     1.4939510000    -0.8170500000 
 H       -1.1865270000    -0.6817070000    -1.0414710000 
 H       -1.3029850000    -0.8415500000     0.7749810000 
 H        1.1341380000    -0.5490540000    -0.8183310000 
*
