! RI PBE def2-SVP def2-SVP/J NBO PAL2
% maxcore 2000
% output
    # printlevel mini
    print[ P_Basis ] 0
    print[ P_SCFInfo ] 1
    print[ P_SCFIterInfo ] 1
    print[ P_OrbEn ] 0
    print[ P_Cartesian ] 0
end
*xyz 0 1
 C        0.9675190000     0.0642160000     0.0691870000 
 C        2.4816190000     0.0402460000     0.0816470000 
 N        2.9738200000    -1.2422340000    -0.4020610000 
 H        0.5865060000     1.0351570000     0.3938440000 
 H        0.5587660000    -0.6938830000     0.7443810000 
 H        0.5901020000    -0.1430090000    -0.9342750000 
 H        2.8402460000     0.2963950000     1.0912820000 
 H        2.8624040000     0.8164610000    -0.5894200000 
 H        2.6667150000    -1.9878970000     0.2118180000 
 H        3.9861040000    -1.2618510000    -0.4022930000 
*
