! RI PBE def2-SVP def2-SVP/J NBO PAL2
% maxcore 2000
% output
    # printlevel mini
    print[ P_Basis ] 0
    print[ P_SCFInfo ] 1
    print[ P_SCFIterInfo ] 1
    print[ P_OrbEn ] 0
    print[ P_Cartesian ] 0
end
*xyz 0 1
 C       -0.1101470000     0.8818270000     0.0685060000 
 C       -0.7949670000    -0.3978420000    -0.0685020000 
 O        0.6179140000    -0.3308730000    -0.0000130000 
 H       -0.0941480000     1.3798830000     1.0346200000 
 H       -0.0125880000     1.5323340000    -0.7969510000 
 H       -1.2005080000    -0.6874340000    -1.0346100000 
 H       -1.2820660000    -0.8398850000     0.7969610000 
*
