! RI PBE def2-SVP def2-SVP/J NBO PAL2
% maxcore 2000
% output
    # printlevel mini
    print[ P_Basis ] 0
    print[ P_SCFInfo ] 1
    print[ P_SCFIterInfo ] 1
    print[ P_OrbEn ] 0
    print[ P_Cartesian ] 0
end
*xyz 0 1
 C        1.0412700000    -0.0919930000    -0.0101300000 
 C        2.5544040000    -0.0853010000    -0.0412960000 
 O        3.0840120000     0.9630770000    -0.8272540000 
 H        0.6697410000    -0.8841950000     0.6453720000 
 H        0.6278610000    -0.2684500000    -1.0081730000 
 H        0.6600420000     0.8649980000     0.3522530000 
 H        2.9304930000    -1.0589770000    -0.3858740000 
 H        2.9525340000     0.0742100000     0.9635300000 
 H        2.7507530000     0.8648220000    -1.7228180000 
*
