! RI PBE def2-SVP def2-SVP/J NBO PAL2
% maxcore 2000
% output
    # printlevel mini
    print[ P_Basis ] 0
    print[ P_SCFInfo ] 1
    print[ P_SCFIterInfo ] 1
    print[ P_OrbEn ] 0
    print[ P_Cartesian ] 0
end
*xyz 0 1
 C        1.0979680000     0.0128980000     0.0138240000 
 O        2.4970600000     0.0314600000    -0.0133400000 
 C        2.9944200000     0.7700440000    -1.0930010000 
 H        0.7909970000    -0.5778050000     0.8773010000 
 H        0.6823630000    -0.4436710000    -0.8960800000 
 H        0.6823850000     1.0264190000     0.1096140000 
 H        4.0831060000     0.7365510000    -1.0440690000 
 H        2.6679640000     1.8191480000    -1.0492310000 
 H        2.6679370000     0.3490540000    -2.0549180000 
*
