! RI PBE def2-SVP def2-SVP/J NBO PAL2
% maxcore 2000
% output
    # printlevel mini
    print[ P_Basis ] 0
    print[ P_SCFInfo ] 1
    print[ P_SCFIterInfo ] 1
    print[ P_OrbEn ] 0
    print[ P_Cartesian ] 0
end
*xyz 0 1
 C        1.1724360000    -0.0555370000     0.1513390000 
 C        2.6537390000     0.0107700000    -0.0885400000 
 C        3.2510160000    -0.6609840000    -1.2858640000 
 C        3.1953910000     0.8367950000    -1.2137110000 
 H        0.6258690000    -0.0313570000    -0.7956140000 
 H        0.8924300000    -0.9758350000     0.6717950000 
 H        0.8277920000     0.7892510000     0.7544150000 
 H        3.2611930000    -0.0099220000     0.8112480000 
 H        2.5736760000    -1.1595220000    -1.9697890000 
 H        4.2157900000    -1.1425820000    -1.1842460000 
 H        2.4804170000     1.3474630000    -1.8486360000 
 H        4.1225420000     1.3761490000    -1.0635060000 
*
