! RI PBE def2-SVP def2-SVP/J NBO PAL2
% maxcore 2000
% output
    # printlevel mini
    print[ P_Basis ] 0
    print[ P_SCFInfo ] 1
    print[ P_SCFIterInfo ] 1
    print[ P_OrbEn ] 0
    print[ P_Cartesian ] 0
end
*xyz 0 1
 C        1.4575000000     0.6767360000    -0.0389240000 
 C        2.9292560000     0.4085060000     0.2417550000 
 C        3.0969060000    -0.7475250000     1.2178090000 
 C        3.6232520000     1.6617550000     0.7563860000 
 H        1.3301700000     1.4869530000    -0.7617390000 
 H        0.9360900000     0.9662730000     0.8794150000 
 H        0.9588820000    -0.2107470000    -0.4374710000 
 H        3.4065800000     0.1230100000    -0.7045730000 
 H        2.6364610000    -0.5081350000     2.1820550000 
 H        2.6245830000    -1.6592000000     0.8423630000 
 H        4.1523560000    -0.9665070000     1.4001000000 
 H        3.5318690000     2.4885790000     0.0470580000 
 H        4.6878130000     1.4855420000     0.9318900000 
 H        3.1801910000     1.9866600000     1.7035860000 
*
