! RI PBE def2-SVP def2-SVP/J NBO PAL2
% maxcore 2000
% output
    # printlevel mini
    print[ P_Basis ] 0
    print[ P_SCFInfo ] 1
    print[ P_SCFIterInfo ] 1
    print[ P_OrbEn ] 0
    print[ P_Cartesian ] 0
end
*xyz 0 1
 C        0.8567280000    -0.3434190000    -0.0122160000 
 C        2.0535880000     0.2372410000    -0.0861890000 
 C        2.7076340000     0.8959960000     1.0266710000 
 C        3.9044900000     1.4766630000     0.9526970000 
 H        0.4043850000    -0.8251890000    -0.8702680000 
 H        0.2926340000    -0.3528980000     0.9150160000 
 H        2.5952210000     0.2305240000    -1.0299100000 
 H        2.1660040000     0.9027040000     1.9703940000 
 H        4.4685850000     1.4861440000     0.0254650000 
 H        4.3568310000     1.9584330000     1.8107500000 
*
