! RI PBE def2-SVP def2-SVP/J NBO PAL2
% maxcore 2000
% output
    # printlevel mini
    print[ P_Basis ] 0
    print[ P_SCFInfo ] 1
    print[ P_SCFIterInfo ] 1
    print[ P_OrbEn ] 0
    print[ P_Cartesian ] 0
end
*xyz 0 1
 C        0.9903750000    -0.0630000000     0.0776000000 
 C        2.1950460000    -0.0630000000     0.0776000000 
 C        3.5591540000    -0.0630000000     0.0776000000 
 C        4.7638250000    -0.0630000000     0.0776000000 
 H       -0.0740650000    -0.0630000000     0.0776000000 
 H        5.8282650000    -0.0630000000     0.0776000000 
*
