! RI PBE def2-SVP def2-SVP/J NBO PAL2
% maxcore 2000
% output
    # printlevel mini
    print[ P_Basis ] 0
    print[ P_SCFInfo ] 1
    print[ P_SCFIterInfo ] 1
    print[ P_OrbEn ] 0
    print[ P_Cartesian ] 0
end
*xyz 0 1
 C        0.9387240000     0.0897880000     0.0160010000 
 C        2.4365110000     0.0275840000     0.0295490000 
 C        3.1661170000    -0.7558050000    -0.9835550000 
 N        3.2100940000     0.7065960000    -1.0046210000 
 H        0.5064430000    -0.6911010000     0.6475020000 
 H        0.5521430000    -0.0481710000    -0.9982570000 
 H        0.5808300000     1.0544700000     0.3869570000 
 H        2.8887870000     0.1128510000     1.0147230000 
 H        2.5765290000    -1.2686810000    -1.7381820000 
 H        4.1046700000    -1.2394970000    -0.7349070000 
 H        2.5850610000     1.0599660000    -1.7225000000 
*
