! RI PBE def2-SVP def2-SVP/J NBO PAL2
% maxcore 2000
% output
    # printlevel mini
    print[ P_Basis ] 0
    print[ P_SCFInfo ] 1
    print[ P_SCFIterInfo ] 1
    print[ P_OrbEn ] 0
    print[ P_Cartesian ] 0
end
*xyz 0 1
 C        0.9176340000     0.0260770000    -0.0693120000 
 C        2.4349590000    -0.0371550000    -0.0739340000 
 C        2.9662600000    -1.4420660000     0.1389620000 
 N        4.4209570000    -1.4476770000     0.1666770000 
 H        0.5606960000     1.0455990000    -0.2298200000 
 H        0.5110120000    -0.3196660000     0.8852980000 
 H        0.4896800000    -0.6017560000    -0.8560370000 
 H        2.8485310000     0.6112360000     0.7044090000 
 H        2.8163470000     0.3470070000    -1.0282960000 
 H        2.5344510000    -2.1058280000    -0.6288980000 
 H        2.6103450000    -1.8151220000     1.1057130000 
 H        4.7896980000    -1.1536480000    -0.7301530000 
 H        4.7737190000    -2.3810990000     0.3360800000 
*
