! RI PBE def2-SVP def2-SVP/J NBO PAL2
% maxcore 2000
% output
    # printlevel mini
    print[ P_Basis ] 0
    print[ P_SCFInfo ] 1
    print[ P_SCFIterInfo ] 1
    print[ P_OrbEn ] 0
    print[ P_Cartesian ] 0
end
*xyz 0 1
 C        0.9251560000     0.0615220000    -0.0561150000 
 C        2.2541000000     0.0614750000    -0.0858250000 
 C        2.9978870000     0.0585680000    -1.2998580000 
 N        3.6202430000     0.0562480000    -2.2691920000 
 H        0.3955630000     0.0637840000     0.8882460000 
 H        0.3372220000     0.0593210000    -0.9657560000 
 H        2.8404280000     0.0636830000     0.8270980000 
*
