! RI PBE def2-SVP def2-SVP/J NBO PAL2
% maxcore 2000
% output
    # printlevel mini
    print[ P_Basis ] 0
    print[ P_SCFInfo ] 1
    print[ P_SCFIterInfo ] 1
    print[ P_OrbEn ] 0
    print[ P_Cartesian ] 0
end
*xyz 0 1
 C        1.0185430000    -0.0002480000     0.0832680000 
 C        2.5359860000    -0.0324180000     0.1112150000 
 C        3.0557380000    -0.5132930000     1.4615240000 
 N        3.0102180000    -0.8198850000    -1.0215640000 
 H        0.6215870000     0.6345770000     0.8783920000 
 H        0.6116400000    -1.0070620000     0.2290540000 
 H        0.6598920000     0.3728490000    -0.8773380000 
 H        2.8991040000     0.9902820000    -0.0496250000 
 H        2.7023440000    -1.5289380000     1.6688180000 
 H        2.7174470000     0.1323490000     2.2773240000 
 H        4.1490760000    -0.5285970000     1.4781640000 
 H        2.6697220000    -1.7728300000    -0.9436840000 
 H        4.0222130000    -0.8737870000    -1.0152460000 
*
