! RI PBE def2-SVP def2-SVP/J NBO PAL2
% maxcore 2000
% output
    # printlevel mini
    print[ P_Basis ] 0
    print[ P_SCFInfo ] 1
    print[ P_SCFIterInfo ] 1
    print[ P_OrbEn ] 0
    print[ P_Cartesian ] 0
end
*xyz 0 1
 C        1.0500740000     0.0522890000    -0.1390010000 
 N        2.4944430000     0.0823590000    -0.1543710000 
 C        3.1294650000    -0.7434200000    -1.1579690000 
 C        3.0970510000     0.7296800000    -1.2989500000 
 H        0.7103030000    -0.7862040000     0.4734670000 
 H        0.6110120000    -0.0529180000    -1.1447400000 
 H        0.6716390000     0.9755170000     0.3060730000 
 H        2.4849940000    -1.3168430000    -1.8211160000 
 H        4.0407990000    -1.2470250000    -0.8539370000 
 H        2.4309370000     1.1383110000    -2.0560760000 
 H        3.9841730000     1.3211450000    -1.0995800000 
*
