! RI PBE def2-SVP def2-SVP/J NBO PAL2
% maxcore 2000
% output
    # printlevel mini
    print[ P_Basis ] 0
    print[ P_SCFInfo ] 1
    print[ P_SCFIterInfo ] 1
    print[ P_OrbEn ] 0
    print[ P_Cartesian ] 0
end
*xyz 0 1
 C        1.0777590000     0.0460810000    -0.0581520000 
 N        2.5190360000     0.0981540000    -0.0482990000 
 C        3.0245890000     0.9415130000    -1.1034810000 
 C        3.0244500000     0.5032830000     1.2403690000 
 H        0.7245450000    -0.3185470000    -1.0255990000 
 H        0.6107830000     1.0324040000     0.1253780000 
 H        0.7245350000    -0.6419380000     0.7135240000 
 H        2.6723860000     0.5785050000    -2.0718920000 
 H        4.1168630000     0.9176030000    -1.1091840000 
 H        2.7074080000     1.9966040000    -0.9994390000 
 H        2.6731110000    -0.1859130000     2.0118700000 
 H        2.7064880000     1.5242010000     1.5252900000 
 H        4.1167470000     0.4799480000     1.2366060000 
*
