! RI PBE def2-SVP def2-SVP/J NBO PAL2
% maxcore 2000
% output
    # printlevel mini
    print[ P_Basis ] 0
    print[ P_SCFInfo ] 1
    print[ P_SCFIterInfo ] 1
    print[ P_OrbEn ] 0
    print[ P_Cartesian ] 0
end
*xyz 0 1
 N        0.9704640000    -0.1767640000    -0.1613300000 
 C        2.3862350000     0.1377770000     0.0065600000 
 C        2.8025830000     1.2339890000    -0.9175470000 
 C        3.3841760000     2.3638680000    -0.5456880000 
 H        0.7170430000    -0.9667800000     0.4194990000 
 H        0.7858060000    -0.4512350000    -1.1193420000 
 H        3.0457380000    -0.7296780000    -0.1686680000 
 H        2.5504380000     0.4562460000     1.0399460000 
 H        2.6158130000     1.0568220000    -1.9765610000 
 H        3.5827820000     2.5800940000     0.4995600000 
 H        3.6838230000     3.1140620000    -1.2683210000 
*
