! RI PBE def2-SVP def2-SVP/J NBO PAL2
% maxcore 2000
% output
    # printlevel mini
    print[ P_Basis ] 0
    print[ P_SCFInfo ] 1
    print[ P_SCFIterInfo ] 1
    print[ P_OrbEn ] 0
    print[ P_Cartesian ] 0
end
*xyz 0 1
 N        1.0158970000    -0.0684440000    -0.0964120000 
 C        2.4726690000    -0.0688530000    -0.0513990000 
 C        2.9696400000    -0.8842010000     1.0474210000 
 C        3.3806160000    -1.5340110000     1.9685990000 
 H        0.6953480000     0.5577480000    -0.8245540000 
 H        0.6420310000     0.2700850000     0.7814760000 
 H        2.9224710000     0.9321130000     0.0433400000 
 H        2.8452870000    -0.4883080000    -0.9920350000 
 H        3.7438310000    -2.1199380000     2.7793540000 
*
