! RI PBE def2-SVP def2-SVP/J NBO PAL2
% maxcore 2000
% output
    # printlevel mini
    print[ P_Basis ] 0
    print[ P_SCFInfo ] 1
    print[ P_SCFIterInfo ] 1
    print[ P_OrbEn ] 0
    print[ P_Cartesian ] 0
end
*xyz 0 1
 C        0.3508120000     1.0581090000    -0.0897580000 
 C        0.9800420000    -0.3143030000     0.1687500000 
 O       -0.3033430000    -0.9145090000     0.3909510000 
 C       -0.9738020000     0.3335780000     0.1685540000 
 H        0.4800010000     1.4474040000    -1.0986730000 
 H        0.6077550000     1.8332030000     0.6308940000 
 H        1.6198230000    -0.3846970000     1.0545400000 
 H        1.4988220000    -0.7684010000    -0.6817820000 
 H       -1.5290470000     0.6594460000     1.0542240000 
 H       -1.6609630000     0.2793610000    -0.6820990000 
*
