! RI PBE def2-SVP def2-SVP/J NBO PAL2
% maxcore 2000
% output
    # printlevel mini
    print[ P_Basis ] 0
    print[ P_SCFInfo ] 1
    print[ P_SCFIterInfo ] 1
    print[ P_OrbEn ] 0
    print[ P_Cartesian ] 0
end
*xyz 0 1
 C        0.8795000000    -0.0068480000    -0.0193290000 
 C        2.3722960000    -0.0979680000    -0.0203110000 
 C        3.1053520000    -0.8727750000    -1.0158130000 
 O        3.0510120000     0.5423680000    -1.0910580000 
 H        0.4503000000    -0.7499700000     0.6579730000 
 H        0.4840150000    -0.1782590000    -1.0221370000 
 H        0.5536580000     0.9814530000     0.3141610000 
 H        2.8547500000     0.0496970000     0.9458500000 
 H        2.5503550000    -1.3995810000    -1.7892600000 
 H        4.0798620000    -1.2895170000    -0.7725670000 
*
