! RI PBE def2-SVP def2-SVP/J NBO PAL2
% maxcore 2000
% output
    # printlevel mini
    print[ P_Basis ] 0
    print[ P_SCFInfo ] 1
    print[ P_SCFIterInfo ] 1
    print[ P_OrbEn ] 0
    print[ P_Cartesian ] 0
end
*xyz 0 1
 C        1.0242200000     0.0992090000    -0.0740110000 
 C        2.5425500000     0.0436440000    -0.0655940000 
 C        3.0762540000    -1.0712950000     0.8127460000 
 O        4.4862280000    -1.1047800000     0.8788200000 
 H        0.6589340000     0.9006550000    -0.7190700000 
 H        0.6302340000     0.2778340000     0.9302100000 
 H        0.5930360000    -0.8386250000    -0.4353530000 
 H        2.9584930000     0.9930240000     0.2856780000 
 H        2.9124580000    -0.0999220000    -1.0888770000 
 H        2.6753120000    -2.0379030000     0.4721530000 
 H        2.7358480000    -0.9301550000     1.8425110000 
 H        4.8258420000    -1.2271970000    -0.0113130000 
*
