! RI PBE def2-SVP def2-SVP/J NBO PAL2
% maxcore 2000
% output
    # printlevel mini
    print[ P_Basis ] 0
    print[ P_SCFInfo ] 1
    print[ P_SCFIterInfo ] 1
    print[ P_OrbEn ] 0
    print[ P_Cartesian ] 0
end
*xyz 0 1
 C        0.9870220000     0.0778190000     0.0780910000 
 C        2.5037680000     0.0751190000     0.0332580000 
 C        3.0454010000    -0.7588930000    -1.1128630000 
 O        3.0177830000     1.3968800000    -0.0069590000 
 H        0.5929610000    -0.9335830000     0.2058950000 
 H        0.5750910000     0.4792490000    -0.8543720000 
 H        0.6309550000     0.6962110000     0.9038740000 
 H        2.8846100000    -0.3303020000     0.9763150000 
 H        2.6809320000    -0.3767570000    -2.0727860000 
 H        2.7271820000    -1.8011250000    -1.0289390000 
 H        4.1363030000    -0.7286810000    -1.1242790000 
 H        2.7138730000     1.8085530000    -0.8214350000 
*
