! RI PBE def2-SVP def2-SVP/J NBO PAL2
% maxcore 2000
% output
    # printlevel mini
    print[ P_Basis ] 0
    print[ P_SCFInfo ] 1
    print[ P_SCFIterInfo ] 1
    print[ P_OrbEn ] 0
    print[ P_Cartesian ] 0
end
*xyz 0 1
 C        0.9319330000    -0.1421550000    -0.0605620000 
 C        2.4469790000    -0.0028480000     0.0305450000 
 C        2.9586840000     1.0845120000    -0.8660590000 
 O        3.6630320000     1.9922680000    -0.5206090000 
 H        0.5846270000    -0.9893570000     0.5325430000 
 H        0.6093990000    -0.3050600000    -1.0923240000 
 H        0.4312040000     0.7550720000     0.3093940000 
 H        2.9189190000    -0.9367460000    -0.3017950000 
 H        2.7813760000     0.1976390000     1.0500890000 
 H        2.6278460000     1.0026640000    -1.9275240000 
*
