! RI PBE def2-SVP def2-SVP/J NBO PAL2
% maxcore 2000
% output
    # printlevel mini
    print[ P_Basis ] 0
    print[ P_SCFInfo ] 1
    print[ P_SCFIterInfo ] 1
    print[ P_OrbEn ] 0
    print[ P_Cartesian ] 0
end
*xyz 0 1
 C        0.9914980000    -0.0350400000     0.0900130000 
 C        2.4977850000    -0.0844280000     0.0595400000 
 O        2.9041990000    -1.1060710000    -0.8156890000 
 C        4.2964470000    -1.2176100000    -0.8995030000 
 H        0.6507040000     0.7532300000     0.7648980000 
 H        0.5831720000    -0.9866100000     0.4355300000 
 H        0.5938610000     0.1668870000    -0.9063350000 
 H        2.8992560000    -0.2732010000     1.0679820000 
 H        2.9099470000     0.8811270000    -0.2745230000 
 H        4.5226880000    -2.0267440000    -1.5943670000 
 H        4.7431630000    -1.4524550000     0.0773010000 
 H        4.7550500000    -0.2903870000    -1.2720570000 
*
