! RI PBE def2-SVP def2-SVP/J NBO PAL2
% maxcore 2000
% output
    # printlevel mini
    print[ P_Basis ] 0
    print[ P_SCFInfo ] 1
    print[ P_SCFIterInfo ] 1
    print[ P_OrbEn ] 0
    print[ P_Cartesian ] 0
end
*xyz 0 1
 O        0.9998600000     0.0552690000    -0.0288520000 
 C        2.3893030000    -0.0404750000    -0.0478200000 
 C        3.0556580000    -0.8458290000    -1.1182390000 
 C        3.0770010000     0.6597750000    -1.1607200000 
 H        0.6464390000    -0.7774720000     0.2953950000 
 H        2.8630300000    -0.0146980000     0.9314550000 
 H        2.4061970000    -1.3446480000    -1.8271000000 
 H        3.9695360000    -1.3755240000    -0.8785800000 
 H        2.4340470000     1.1379500000    -1.8886340000 
 H        4.0054200000     1.1767520000    -0.9545060000 
*
