! RI PBE def2-SVP def2-SVP/J NBO PAL2
% maxcore 2000
% output
    # printlevel mini
    print[ P_Basis ] 0
    print[ P_SCFInfo ] 1
    print[ P_SCFIterInfo ] 1
    print[ P_OrbEn ] 0
    print[ P_Cartesian ] 0
end
*xyz 0 1
 O        0.9060320000     0.1544980000    -0.0306240000 
 C        2.1059860000     0.0852160000    -0.0031990000 
 C        2.8364370000    -1.0726250000     0.4557630000 
 C        3.4909400000    -2.0096910000     0.8272050000 
 H        2.7447370000     0.9248830000    -0.3360570000 
 H        4.0534680000    -2.8510820000     1.1607220000 
*
