! RI PBE def2-SVP def2-SVP/J NBO PAL2
% maxcore 2000
% output
    # printlevel mini
    print[ P_Basis ] 0
    print[ P_SCFInfo ] 1
    print[ P_SCFIterInfo ] 1
    print[ P_OrbEn ] 0
    print[ P_Cartesian ] 0
end
*xyz 0 1
 O        0.8979970000     0.0164940000    -0.0371590000 
 C        2.3105390000     0.0113740000    -0.0475310000 
 C        2.7925360000    -0.5949160000    -1.2773020000 
 C        3.2171510000    -1.0907660000    -2.2830500000 
 H        0.6123640000     0.4220780000     0.7854420000 
 H        2.7144000000    -0.5571640000     0.8019740000 
 H        2.7144080000     1.0314180000     0.0187890000 
 H        3.5861050000    -1.5322190000    -3.1784650000 
*
