! RI PBE def2-SVP def2-SVP/J NBO PAL2
% maxcore 2000
% output
    # printlevel mini
    print[ P_Basis ] 0
    print[ P_SCFInfo ] 1
    print[ P_SCFIterInfo ] 1
    print[ P_OrbEn ] 0
    print[ P_Cartesian ] 0
end
*xyz 0 1
 C        0.9287420000     0.0174150000    -0.0531570000 
 C        2.4371530000     0.0567800000    -0.0179400000 
 N        3.0687050000    -0.8386820000    -0.8186990000 
 O        3.0440090000     0.8388630000     0.6814260000 
 H        0.5208990000    -0.7365540000    -0.7273930000 
 H        0.5650300000     1.0013790000    -0.3524840000 
 H        0.5650180000    -0.1705200000     0.9580070000 
 H        2.5705700000    -1.4869350000    -1.3983970000 
 H        4.0740640000    -0.8453460000    -0.8246550000 
*
