! RI PBE def2-SVP def2-SVP/J NBO PAL2
% maxcore 2000
% output
    # printlevel mini
    print[ P_Basis ] 0
    print[ P_SCFInfo ] 1
    print[ P_SCFIterInfo ] 1
    print[ P_OrbEn ] 0
    print[ P_Cartesian ] 0
end
*xyz 0 1
 C        0.9063890000    -0.0275010000     0.0195190000 
 N        2.3494440000    -0.0011740000     0.0459920000 
 C        3.0770200000     0.7993460000     0.8512740000 
 O        4.2848290000     0.8362690000     0.8882560000 
 H        0.5817170000    -0.7603570000    -0.7176700000 
 H        0.4867240000     0.9405610000    -0.2669410000 
 H        0.4867370000    -0.3196720000     0.9858780000 
 H        2.8719280000    -0.6083320000    -0.5648010000 
 H        2.4400110000     1.4391690000     1.4947930000 
*
