! RI PBE def2-SVP def2-SVP/J NBO PAL2
% maxcore 2000
% output
    # printlevel mini
    print[ P_Basis ] 0
    print[ P_SCFInfo ] 1
    print[ P_SCFIterInfo ] 1
    print[ P_OrbEn ] 0
    print[ P_Cartesian ] 0
end
*xyz 0 1
 C        1.0079540000    -0.1061110000     0.2263640000 
 O        2.3930510000    -0.0987590000    -0.0549190000 
 N        2.6421220000     0.7386740000    -1.1115840000 
 C        3.8713810000     0.7820330000    -1.4056320000 
 H        0.8812660000    -0.7854220000     1.0688960000 
 H        0.4362060000    -0.4694540000    -0.6316500000 
 H        0.6588590000     0.8929780000     0.5003190000 
 H        4.1492210000     1.4237240000    -2.2326100000 
 H        4.6260390000     0.2107390000    -0.8667630000 
*
