! RI PBE def2-SVP def2-SVP/J NBO PAL2
% maxcore 2000
% output
    # printlevel mini
    print[ P_Basis ] 0
    print[ P_SCFInfo ] 1
    print[ P_SCFIterInfo ] 1
    print[ P_OrbEn ] 0
    print[ P_Cartesian ] 0
end
*xyz 0 1
 N        0.9711970000     0.0659050000     0.0618950000 
 C        2.4239890000     0.0220650000     0.0643820000 
 C        2.9784690000     1.2162360000    -0.6912190000 
 O        4.3875060000     1.2079520000    -0.7643990000 
 H        0.5870260000    -0.6501110000     0.6639490000 
 H        0.6125340000    -0.1095490000    -0.8689870000 
 H        2.8578720000    -0.8929680000    -0.3659640000 
 H        2.7626330000     0.0753360000     1.1056560000 
 H        2.5958790000     2.1402300000    -0.2394590000 
 H        2.6261310000     1.1927070000    -1.7269330000 
 H        4.7369730000     1.3235970000     0.1225690000 
*
