! RI PBE def2-SVP def2-SVP/J NBO PAL2
% maxcore 2000
% output
    # printlevel mini
    print[ P_Basis ] 0
    print[ P_SCFInfo ] 1
    print[ P_SCFIterInfo ] 1
    print[ P_OrbEn ] 0
    print[ P_Cartesian ] 0
end
*xyz 0 1
 C        1.0883810000     0.0000130000    -0.0512670000 
 C        2.5896140000     0.0405630000    -0.0791580000 
 C        3.3470080000    -0.7425120000    -1.1113460000 
 C        3.3179560000     0.7566760000    -1.1742480000 
 C        4.5600740000     1.5493910000    -0.8827320000 
 H        0.6827930000    -0.0509820000    -1.0654330000 
 H        0.7224070000    -0.8744230000     0.4944670000 
 H        0.6725030000     0.8911590000     0.4276740000 
 H        3.0613890000     0.0973020000     0.8983860000 
 H        2.7713650000    -1.3009000000    -1.8409530000 
 H        4.2782060000    -1.2153160000    -0.8201610000 
 H        2.6819970000     1.1764230000    -1.9493210000 
 H        5.2015380000     1.6257820000    -1.7654110000 
 H        5.1454330000     1.0756420000    -0.0899140000 
 H        4.3194460000     2.5649630000    -0.5554020000 
*
