! RI PBE def2-SVP def2-SVP/J NBO PAL2
% maxcore 2000
% output
    # printlevel mini
    print[ P_Basis ] 0
    print[ P_SCFInfo ] 1
    print[ P_SCFIterInfo ] 1
    print[ P_OrbEn ] 0
    print[ P_Cartesian ] 0
end
*xyz 0 1
 C        0.8101160000     0.1011800000    -0.1112030000 
 C        2.3115700000     0.0982850000     0.0081730000 
 C        2.8279710000     0.1042610000     1.4230640000 
 C        3.0948680000    -0.6603780000    -1.0204950000 
 C        3.0983760000     0.8428730000    -1.0281200000 
 H        0.4942440000     0.0971320000    -1.1571180000 
 H        0.3763300000    -0.7795020000     0.3728180000 
 H        0.3801700000     0.9881290000     0.3647240000 
 H        2.4792160000    -0.7762810000     1.9717570000 
 H        2.4825990000     0.9913490000     1.9632780000 
 H        3.9202670000     0.1023430000     1.4478440000 
 H        2.5481280000    -1.1701530000    -1.8052350000 
 H        3.9981890000    -1.1679460000    -0.7026920000 
 H        2.5541900000     1.3474980000    -1.8179550000 
 H        4.0039660000     1.3497010000    -0.7156200000 
*
