! RI PBE def2-SVP def2-SVP/J NBO PAL2
% maxcore 2000
% output
    # printlevel mini
    print[ P_Basis ] 0
    print[ P_SCFInfo ] 1
    print[ P_SCFIterInfo ] 1
    print[ P_OrbEn ] 0
    print[ P_Cartesian ] 0
end
*xyz 0 1
 C        1.1705790000    -0.0233790000     0.2205830000 
 C        2.6421570000     0.0686260000    -0.1457250000 
 C        2.9634790000     0.1201390000    -1.6218780000 
 C        2.1965540000    -0.6527680000    -2.6502740000 
 C        2.1107700000     0.8456450000    -2.6167170000 
 H        0.6041710000     0.8377870000    -0.1419840000 
 H        0.7044510000    -0.9258260000    -0.1821610000 
 H        1.0517490000    -0.0548460000     1.3057650000 
 H        3.1705160000    -0.7875990000     0.2896400000 
 H        3.0711720000     0.9587320000     0.3290800000 
 H        4.0304610000     0.1855000000    -1.8147850000 
 H        1.3227870000    -1.2076350000    -2.3315180000 
 H        2.7480660000    -1.1195870000    -3.4570360000 
 H        1.1801550000     1.2821550000    -2.2755880000 
 H        2.6031450000     1.4079580000    -3.4004900000 
*
