! RI PBE def2-SVP def2-SVP/J NBO PAL2
% maxcore 2000
% output
    # printlevel mini
    print[ P_Basis ] 0
    print[ P_SCFInfo ] 1
    print[ P_SCFIterInfo ] 1
    print[ P_OrbEn ] 0
    print[ P_Cartesian ] 0
end
*xyz 0 1
 C        1.0305370000    -0.0242480000     0.0110450000 
 C        2.5492570000    -0.0451320000    -0.0311440000 
 C        3.1037050000    -0.4611590000    -1.3846140000 
 C        4.6231320000    -0.4861470000    -1.4401940000 
 C        5.1641160000    -0.9032280000    -2.7974360000 
 H        0.6587260000     0.2774640000     0.9930430000 
 H        0.6168280000    -1.0118990000    -0.2116930000 
 H        0.6257220000     0.6746000000    -0.7264900000 
 H        2.9292680000    -0.7271820000     0.7384000000 
 H        2.9380930000     0.9466870000     0.2275050000 
 H        2.7242000000     0.2205760000    -2.1565540000 
 H        2.7153560000    -1.4540520000    -1.6454330000 
 H        5.0002230000    -1.1675950000    -0.6686830000 
 H        5.0090620000     0.5062840000    -1.1795440000 
 H        4.8198420000    -1.9056250000    -3.0674300000 
 H        6.2565150000    -0.9129380000    -2.8102470000 
 H        4.8287970000    -0.2190970000    -3.5821320000 
*
