! RI PBE def2-SVP def2-SVP/J NBO PAL2
% maxcore 2000
% output
    # printlevel mini
    print[ P_Basis ] 0
    print[ P_SCFInfo ] 1
    print[ P_SCFIterInfo ] 1
    print[ P_OrbEn ] 0
    print[ P_Cartesian ] 0
end
*xyz 0 1
 C        0.9774020000     0.1717270000     0.3936870000 
 C        2.2246410000    -0.5763380000    -0.0477190000 
 C        2.8499920000    -1.4702920000     1.0218780000 
 C        4.1796520000    -2.0307880000     0.5363620000 
 C        1.9209120000    -2.5987890000     1.4488940000 
 H        0.6228160000     0.8422270000    -0.3926470000 
 H        1.1770340000     0.7802110000     1.2808360000 
 H        0.1566040000    -0.5069590000     0.6362120000 
 H        2.9781610000     0.1489340000    -0.3754180000 
 H        1.9950340000    -1.1905670000    -0.9279700000 
 H        3.0478340000    -0.8430130000     1.9022060000 
 H        4.0337870000    -2.6629430000    -0.3457760000 
 H        4.8734650000    -1.2320790000     0.2609140000 
 H        4.6592160000    -2.6423980000     1.3050560000 
 H        0.9851120000    -2.2263780000     1.8707120000 
 H        2.3944730000    -3.2300950000     2.2052710000 
 H        1.6721460000    -3.2370710000     0.5942800000 
*
