! RI PBE def2-SVP def2-SVP/J NBO PAL2
% maxcore 2000
% output
    # printlevel mini
    print[ P_Basis ] 0
    print[ P_SCFInfo ] 1
    print[ P_SCFIterInfo ] 1
    print[ P_OrbEn ] 0
    print[ P_Cartesian ] 0
end
*xyz 0 1
 C       -0.0000250000     1.2420010000     0.0014700000 
 C        1.1715240000     0.3168130000     0.0008790000 
 C        0.7299330000    -0.9507470000    -0.0002100000 
 C       -0.7298850000    -0.9507800000    -0.0004080000 
 C       -1.1715330000     0.3167610000     0.0005620000 
 H        0.0000780000     1.9053270000    -0.8736190000 
 H       -0.0001590000     1.9039110000     0.8776300000 
 H        2.2023520000     0.6435620000     0.0012830000 
 H        1.3461100000    -1.8407700000    -0.0008500000 
 H       -1.3460210000    -1.8408300000    -0.0012140000 
 H       -2.2023750000     0.6434630000     0.0006870000 
*
