! RI PBE def2-SVP def2-SVP/J NBO PAL2
% maxcore 2000
% output
    # printlevel mini
    print[ P_Basis ] 0
    print[ P_SCFInfo ] 1
    print[ P_SCFIterInfo ] 1
    print[ P_OrbEn ] 0
    print[ P_Cartesian ] 0
end
*xyz 0 1
 C       -1.2850110000    -0.0001290000    -0.1218460000 
 C       -0.3837910000    -1.2249170000     0.1117770000 
 C        0.9978430000    -0.6644910000    -0.0645540000 
 C        0.9980380000     0.6636430000    -0.0654600000 
 C       -0.3834330000     1.2247170000     0.1100880000 
 H       -2.1738770000     0.0004370000     0.5112210000 
 H       -1.6268040000    -0.0007940000    -1.1600460000 
 H       -0.6044900000    -2.0451070000    -0.5773480000 
 H       -0.5012900000    -1.6333090000     1.1240980000 
 H        1.8833670000    -1.2858660000    -0.1358200000 
 H        1.8837440000     1.2846600000    -0.1375760000 
 H       -0.6038910000     2.0440210000    -0.5801680000 
 H       -0.5008160000     1.6345370000     1.1218440000 
*
