! RI PBE def2-SVP def2-SVP/J NBO PAL2
% maxcore 2000
% output
    # printlevel mini
    print[ P_Basis ] 0
    print[ P_SCFInfo ] 1
    print[ P_SCFIterInfo ] 1
    print[ P_OrbEn ] 0
    print[ P_Cartesian ] 0
end
*xyz 0 1
 C        1.4785010000    -0.4959310000    -0.5900410000 
 C        2.2004890000     0.3034670000     0.1843680000 
 C        3.1096630000    -0.1150100000     1.2706200000 
 C        3.6092950000    -1.5177630000     1.4012650000 
 C        4.5501860000    -0.4382530000     0.9637410000 
 H        0.8548230000    -0.0967120000    -1.3811380000 
 H        1.4801810000    -1.5731550000    -0.4625440000 
 H        2.1441700000     1.3784130000     0.0192000000 
 H        2.9607630000     0.4226380000     2.2028990000 
 H        3.2994360000    -2.2410040000     0.6578850000 
 H        3.7213530000    -1.9236340000     2.3987070000 
 H        4.8433310000    -0.4250730000    -0.0787770000 
 H        5.3098990000    -0.0981600000     1.6566140000 
*
