! RI PBE def2-SVP def2-SVP/J NBO PAL2
% maxcore 2000
% output
    # printlevel mini
    print[ P_Basis ] 0
    print[ P_SCFInfo ] 1
    print[ P_SCFIterInfo ] 1
    print[ P_OrbEn ] 0
    print[ P_Cartesian ] 0
end
*xyz 0 1
 C        1.0177760000    -0.0693840000    -0.0778750000 
 C        2.2196800000    -0.0686190000    -0.0839780000 
 C        3.6507910000    -0.0675740000    -0.0944160000 
 C        4.3942770000    -0.8181320000    -1.1720000000 
 C        4.3930930000     0.6715050000    -1.1806070000 
 H       -0.0461170000    -0.0703850000    -0.0707530000 
 H        4.1106840000    -0.0616480000     0.8879770000 
 H        3.7938710000    -1.3320760000    -1.9109200000 
 H        5.2994290000    -1.3336230000    -0.8769610000 
 H        3.7913990000     1.1756470000    -1.9252350000 
 H        5.2974180000     1.1920980000    -0.8921320000 
*
