! RI PBE def2-SVP def2-SVP/J NBO PAL2
% maxcore 2000
% output
    # printlevel mini
    print[ P_Basis ] 0
    print[ P_SCFInfo ] 1
    print[ P_SCFIterInfo ] 1
    print[ P_OrbEn ] 0
    print[ P_Cartesian ] 0
end
*xyz 0 1
 C        0.9848650000    -0.0715650000     0.0548640000 
 C        2.1827110000    -0.0521170000     0.0876650000 
 C        3.6407340000    -0.0384460000     0.1107560000 
 C        4.2006580000     0.6478680000     1.2691260000 
 C        4.6745200000     1.2089860000     2.2161510000 
 H       -0.0790730000    -0.0855500000     0.0312530000 
 H        4.0112870000     0.4378920000    -0.8043660000 
 H        4.0112710000    -1.0698880000     0.0889370000 
 H        5.0899460000     1.7085300000     3.0591140000 
*
