! RI PBE def2-SVP def2-SVP/J NBO PAL2
% maxcore 2000
% output
    # printlevel mini
    print[ P_Basis ] 0
    print[ P_SCFInfo ] 1
    print[ P_SCFIterInfo ] 1
    print[ P_OrbEn ] 0
    print[ P_Cartesian ] 0
end
*xyz 0 1
 C        1.1499810000    -0.0666350000     0.2379730000 
 C        2.6261120000    -0.1375750000     0.0024140000 
 C        3.1780140000    -1.1269840000    -0.7064910000 
 C        3.4755360000     0.9064920000     0.5663600000 
 C        3.0565590000     1.9439980000     1.2891830000 
 H        0.6372380000    -0.9038950000    -0.2359340000 
 H        0.7329290000     0.8624250000    -0.1617020000 
 H        0.9218910000    -0.0850500000     1.3077680000 
 H        2.5786740000    -1.9191740000    -1.1401950000 
 H        4.2491850000    -1.1691430000    -0.8714190000 
 H        4.5388960000     0.8024710000     0.3625480000 
 H        2.0090210000     2.0974570000     1.5228340000 
 H        3.7552650000     2.6776150000     1.6723400000 
*
