! RI PBE def2-SVP def2-SVP/J NBO PAL2
% maxcore 2000
% output
    # printlevel mini
    print[ P_Basis ] 0
    print[ P_SCFInfo ] 1
    print[ P_SCFIterInfo ] 1
    print[ P_OrbEn ] 0
    print[ P_Cartesian ] 0
end
*xyz 0 1
 C        0.9667060000     0.0564050000     0.1385990000 
 C        2.4894120000     0.0238850000     0.0319360000 
 C        3.1284770000     0.0324250000     1.4185080000 
 C        2.9380640000    -1.1722800000    -0.7482600000 
 C        3.6132980000    -1.1407240000    -1.8883430000 
 H        0.6351370000     0.9309600000     0.7045860000 
 H        0.5957780000    -0.8340880000     0.6555010000 
 H        0.5001450000     0.0892210000    -0.8481310000 
 H        2.8187170000     0.9199160000    -0.5074750000 
 H        2.8389930000    -0.8589650000     1.9836420000 
 H        2.8060570000     0.9068850000     1.9899020000 
 H        4.2183870000     0.0479620000     1.3533150000 
 H        2.6720920000    -2.1382320000    -0.3169750000 
 H        3.8975220000    -0.2000110000    -2.3509180000 
 H        3.9072070000    -2.0489610000    -2.4017950000 
*
