! RI PBE def2-SVP def2-SVP/J NBO PAL2
% maxcore 2000
% output
    # printlevel mini
    print[ P_Basis ] 0
    print[ P_SCFInfo ] 1
    print[ P_SCFIterInfo ] 1
    print[ P_OrbEn ] 0
    print[ P_Cartesian ] 0
end
*xyz 0 1
 C        0.9894760000     0.0724990000    -0.0964000000 
 C        2.4377890000     0.0500830000    -0.0682540000 
 C        3.6427220000     0.0206970000    -0.0389390000 
 C        5.0604010000     0.0263780000    -0.0274630000 
 C        5.8198000000    -0.9203320000     0.5239430000 
 H        0.6194100000     0.9801850000    -0.5794050000 
 H        0.5777430000     0.0373120000     0.9157970000 
 H        0.5955470000    -0.7863600000    -0.6464740000 
 H        5.5375130000     0.8762820000    -0.5104360000 
 H        5.3829520000    -1.7821790000     1.0141800000 
 H        6.9001480000    -0.8503660000     0.4950320000 
*
