! RI PBE def2-SVP def2-SVP/J NBO PAL2
% maxcore 2000
% output
    # printlevel mini
    print[ P_Basis ] 0
    print[ P_SCFInfo ] 1
    print[ P_SCFIterInfo ] 1
    print[ P_OrbEn ] 0
    print[ P_Cartesian ] 0
end
*xyz 0 1
 C        0.9698570000     0.0423130000     0.0511400000 
 C        2.4151090000     0.0422260000     0.0511660000 
 C        3.6226940000     0.0422230000     0.0510160000 
 C        4.9862420000     0.0422800000     0.0510430000 
 C        6.1920290000     0.0423230000     0.0510910000 
 H        0.5805210000     0.7458790000    -0.6893970000 
 H        0.5804640000     0.3318600000     1.0306830000 
 H        0.5804430000    -0.9507630000    -0.1879010000 
 H        7.2560410000     0.0423590000     0.0511600000 
*
