! RI PBE def2-SVP def2-SVP/J NBO PAL2
% maxcore 2000
% output
    # printlevel mini
    print[ P_Basis ] 0
    print[ P_SCFInfo ] 1
    print[ P_SCFIterInfo ] 1
    print[ P_OrbEn ] 0
    print[ P_Cartesian ] 0
end
*xyz 0 1
 C        2.1225610000     0.5126710000     1.5325410000 
 C        2.5902870000     0.0279430000     0.1634060000 
 C        3.0894000000    -1.3894380000     0.1559360000 
 C        2.0913010000    -2.4565770000     0.4821400000 
 C        4.3544960000    -1.6792270000    -0.1335620000 
 H        1.8015060000     1.5556110000     1.4833680000 
 H        2.9287900000     0.4420700000     2.2667750000 
 H        1.2784590000    -0.0720410000     1.9046710000 
 H        3.3819340000     0.6860220000    -0.2047690000 
 H        1.7565010000     0.1128710000    -0.5454280000 
 H        1.2319780000    -2.4048530000    -0.1952780000 
 H        1.6977270000    -2.3391050000     1.4963140000 
 H        2.5304340000    -3.4518350000     0.4039600000 
 H        5.0716970000    -0.9016510000    -0.3744230000 
 H        4.7153180000    -2.7022810000    -0.1418430000 
*
