! RI PBE def2-SVP def2-SVP/J NBO PAL2
% maxcore 2000
% output
    # printlevel mini
    print[ P_Basis ] 0
    print[ P_SCFInfo ] 1
    print[ P_SCFIterInfo ] 1
    print[ P_OrbEn ] 0
    print[ P_Cartesian ] 0
end
*xyz 0 1
 C        1.0057190000     0.0276940000     0.0605540000 
 C        2.5236370000     0.0192610000     0.0623010000 
 C        3.1051320000     1.2060220000    -0.7081310000 
 C        4.5578210000     1.2250920000    -0.7235210000 
 C        5.7585970000     1.2204520000    -0.7236070000 
 H        0.6052310000    -0.8242770000     0.6137190000 
 H        0.6101280000    -0.0219850000    -0.9578520000 
 H        0.6137560000     0.9378940000     0.5231700000 
 H        2.8980860000    -0.9076520000    -0.3812570000 
 H        2.9016950000     0.0446130000     1.0882450000 
 H        2.7401950000     2.1420450000    -0.2697750000 
 H        2.7368080000     1.1889620000    -1.7403910000 
 H        6.8226950000     1.2221790000    -0.7269560000 
*
