! RI PBE def2-SVP def2-SVP/J NBO PAL2
% maxcore 2000
% output
    # printlevel mini
    print[ P_Basis ] 0
    print[ P_SCFInfo ] 1
    print[ P_SCFIterInfo ] 1
    print[ P_OrbEn ] 0
    print[ P_Cartesian ] 0
end
*xyz 0 1
 N       -1.1236110000     0.0000000000     0.0005330000 
 C       -0.3411960000     1.1165710000     0.0003970000 
 C        0.9678830000     0.7083200000    -0.0000020000 
 C        0.9678830000    -0.7083200000    -0.0001130000 
 C       -0.3411960000    -1.1165710000     0.0002260000 
 H       -2.1266960000     0.0000000000     0.0008140000 
 H       -0.7738430000     2.1040040000     0.0005950000 
 H        1.8296090000     1.3571860000    -0.0001950000 
 H        1.8296090000    -1.3571860000    -0.0004070000 
 H       -0.7738430000    -2.1040040000     0.0002730000 
*
