! RI PBE def2-SVP def2-SVP/J NBO PAL2
% maxcore 2000
% output
    # printlevel mini
    print[ P_Basis ] 0
    print[ P_SCFInfo ] 1
    print[ P_SCFIterInfo ] 1
    print[ P_OrbEn ] 0
    print[ P_Cartesian ] 0
end
*xyz 0 1
 C       -0.3708120000     1.1832810000     0.0940960000 
 N       -1.2304400000     0.0003690000    -0.0324400000 
 C       -0.3746560000    -1.1867210000     0.0802770000 
 C        1.0277290000    -0.6659930000    -0.0487090000 
 C        1.0298800000     0.6595450000    -0.0409740000 
 H       -0.5055590000     1.6667470000     1.0726210000 
 H       -0.6243920000     1.9364290000    -0.6592220000 
 H       -1.6596430000     0.0063920000    -0.9458530000 
 H       -0.6306650000    -1.9302060000    -0.6817660000 
 H       -0.5109860000    -1.6811260000     1.0531010000 
 H        1.9025040000    -1.3037830000    -0.0843520000 
 H        1.9067200000     1.2948660000    -0.0691880000 
*
