! RI PBE def2-SVP def2-SVP/J NBO PAL2
% maxcore 2000
% output
    # printlevel mini
    print[ P_Basis ] 0
    print[ P_SCFInfo ] 1
    print[ P_SCFIterInfo ] 1
    print[ P_OrbEn ] 0
    print[ P_Cartesian ] 0
end
*xyz 0 1
 C        1.0235570000     0.0120560000    -0.1374450000 
 C        2.5238260000     0.0231790000    -0.0768130000 
 C        3.3282930000    -0.7717790000    -1.0709510000 
 C        3.3357250000     0.7184480000    -1.1357080000 
 N        4.5527000000     1.4299860000    -0.8732680000 
 H        0.6067770000    -0.8742170000     0.3498860000 
 H        0.6785850000     0.0073250000    -1.1751950000 
 H        0.5959310000     0.8934730000     0.3491360000 
 H        2.9487360000     0.0704450000     0.9224590000 
 H        2.7962080000    -1.3221320000    -1.8382410000 
 H        4.2318640000    -1.2601670000    -0.7223760000 
 H        2.7605030000     1.1563800000    -1.9476440000 
 H        5.1939370000     0.8647140000    -0.3323430000 
 H        4.3731560000     2.2757910000    -0.3455960000 
*
