! RI PBE def2-SVP def2-SVP/J NBO PAL2
% maxcore 2000
% output
    # printlevel mini
    print[ P_Basis ] 0
    print[ P_SCFInfo ] 1
    print[ P_SCFIterInfo ] 1
    print[ P_OrbEn ] 0
    print[ P_Cartesian ] 0
end
*xyz 0 1
 C        2.3755630000    -0.8660930000    -0.7240500000 
 C        2.2059390000     0.1609320000     0.0983830000 
 C        3.0965910000     0.5305200000     1.2197400000 
 C        4.5189030000     0.1519020000     1.2450470000 
 N        4.1407500000     1.5447830000     1.0120870000 
 H        1.6842770000    -1.0542150000    -1.5374410000 
 H        3.2024880000    -1.5590420000    -0.6118660000 
 H        1.3438710000     0.8111870000    -0.0410560000 
 H        2.5904340000     0.6575580000     2.1741190000 
 H        4.9095350000    -0.4209880000     0.4109640000 
 H        5.0069240000    -0.0369950000     2.1948760000 
 H        4.2081360000     1.7452630000     0.0184070000 
*
