! RI PBE def2-SVP def2-SVP/J NBO PAL2
% maxcore 2000
% output
    # printlevel mini
    print[ P_Basis ] 0
    print[ P_SCFInfo ] 1
    print[ P_SCFIterInfo ] 1
    print[ P_OrbEn ] 0
    print[ P_Cartesian ] 0
end
*xyz 0 1
 C        0.9717270000     0.0081170000    -0.0203000000 
 C        2.4902430000     0.0357800000    -0.0655650000 
 C        3.0355740000     1.0000250000    -1.1064300000 
 C        4.5510360000     1.0291640000    -1.1618120000 
 N        5.0145410000     1.9963510000    -2.1456100000 
 H        0.6045760000    -0.6909300000     0.7347140000 
 H        0.5542810000    -0.2951650000    -0.9846500000 
 H        0.5668960000     0.9960410000     0.2161830000 
 H        2.8693290000    -0.9725800000    -0.2689010000 
 H        2.8808440000     0.3120380000     0.9207640000 
 H        2.6732070000     2.0144830000    -0.9081210000 
 H        2.6454120000     0.7231680000    -2.0950570000 
 H        4.9210240000     0.0053980000    -1.3385350000 
 H        4.9386580000     1.3337780000    -0.1835190000 
 H        4.7092980000     1.7253910000    -3.0730520000 
 H        6.0259540000     2.0286300000    -2.1686000000 
*
