! RI PBE def2-SVP def2-SVP/J NBO PAL2
% maxcore 2000
% output
    # printlevel mini
    print[ P_Basis ] 0
    print[ P_SCFInfo ] 1
    print[ P_SCFIterInfo ] 1
    print[ P_OrbEn ] 0
    print[ P_Cartesian ] 0
end
*xyz 0 1
 C        0.9568750000    -0.0210410000     0.2423490000 
 C        2.2258660000     0.1836810000    -0.0693510000 
 C        2.9429590000    -0.5534040000    -1.1644540000 
 C        3.5467590000     0.3468220000    -2.1389780000 
 N        4.0252630000     1.0651100000    -2.8979870000 
 H        0.4832830000     0.5197860000     1.0527010000 
 H        0.3442440000    -0.7347700000    -0.2992910000 
 H        2.8166930000     0.9105030000     0.4805150000 
 H        2.2588120000    -1.2276060000    -1.6864340000 
 H        3.7466560000    -1.1698900000    -0.7449610000 
*
