! RI PBE def2-SVP def2-SVP/J NBO PAL2
% maxcore 2000
% output
    # printlevel mini
    print[ P_Basis ] 0
    print[ P_SCFInfo ] 1
    print[ P_SCFIterInfo ] 1
    print[ P_OrbEn ] 0
    print[ P_Cartesian ] 0
end
*xyz 0 1
 C        0.8850480000    -0.0108870000     0.1024870000 
 C        2.3726850000     0.0249920000     0.0233820000 
 C        3.1945710000     0.0891100000     1.0640400000 
 C        4.6834260000     0.1164030000     0.9667960000 
 N        5.2145120000     1.2890710000     1.6502760000 
 H        0.4878290000    -0.9270370000    -0.3465910000 
 H        0.4397620000     0.8243610000    -0.4475840000 
 H        0.5392170000     0.0382350000     1.1366840000 
 H        2.8056640000    -0.0116840000    -0.9762880000 
 H        2.7882480000     0.1426620000     2.0729480000 
 H        4.9752890000     0.0366170000    -0.0920020000 
 H        5.0922230000    -0.7662160000     1.4735920000 
 H        4.9153180000     2.1327650000     1.1767930000 
 H        6.2265970000     1.2809280000     1.6447570000 
*
