! RI PBE def2-SVP def2-SVP/J NBO PAL2
% maxcore 2000
% output
    # printlevel mini
    print[ P_Basis ] 0
    print[ P_SCFInfo ] 1
    print[ P_SCFIterInfo ] 1
    print[ P_OrbEn ] 0
    print[ P_Cartesian ] 0
end
*xyz 0 1
 C        1.0473890000    -0.0045250000    -0.0884700000 
 C        2.5432920000    -0.0650600000    -0.0521150000 
 C        3.2490190000    -1.0337260000     0.5298060000 
 C        3.2331070000     1.0112280000    -0.6987000000 
 N        3.7551280000     1.8915140000    -1.2275360000 
 H        0.6192840000    -0.8636480000     0.4276570000 
 H        0.6857510000     0.0047200000    -1.1196930000 
 H        0.6857630000     0.9102600000     0.3876420000 
 H        2.7482550000    -1.8575470000     1.0247200000 
 H        4.3314120000    -1.0272160000     0.5258880000 
*
