! RI PBE def2-SVP def2-SVP/J NBO PAL2
% maxcore 2000
% output
    # printlevel mini
    print[ P_Basis ] 0
    print[ P_SCFInfo ] 1
    print[ P_SCFIterInfo ] 1
    print[ P_OrbEn ] 0
    print[ P_Cartesian ] 0
end
*xyz 0 1
 C        1.0549300000    -0.0690810000     0.0899900000 
 C        2.5730560000    -0.0995530000    -0.0037370000 
 C        3.0500590000    -1.2265750000    -0.9068580000 
 C        3.1038670000     1.2526160000    -0.4676590000 
 N        4.5572800000     1.3041760000    -0.4214490000 
 H        0.6624170000    -1.0248970000     0.4454880000 
 H        0.6106650000     0.1240070000    -0.8920340000 
 H        0.7071180000     0.7113650000     0.7722940000 
 H        2.9723450000    -0.2764720000     1.0055810000 
 H        2.6209730000    -1.1197390000    -1.9088810000 
 H        2.7444970000    -2.2011680000    -0.5174160000 
 H        4.1362670000    -1.2130290000    -1.0046430000 
 H        2.6180820000     2.0431210000     0.1270820000 
 H        2.7946160000     1.4104520000    -1.5077140000 
 H        4.8790090000     1.2980450000     0.5391880000 
 H        4.9007200000     2.1583420000    -0.8408330000 
*
