! RI PBE def2-SVP def2-SVP/J NBO PAL2
% maxcore 2000
% output
    # printlevel mini
    print[ P_Basis ] 0
    print[ P_SCFInfo ] 1
    print[ P_SCFIterInfo ] 1
    print[ P_OrbEn ] 0
    print[ P_Cartesian ] 0
end
*xyz 0 1
 C        0.9707640000    -0.0967040000     0.0430280000 
 C        2.4981530000    -0.1200590000    -0.0022740000 
 C        3.0428330000    -1.4724990000    -0.4603750000 
 C        2.9986500000     0.9490810000    -0.8631230000 
 N        3.3875920000     1.7843270000    -1.5513920000 
 H        0.6133040000    -0.8698100000     0.7259150000 
 H        0.5536160000    -0.2923180000    -0.9466930000 
 H        0.5977820000     0.8689420000     0.3862520000 
 H        2.8824170000     0.0910940000     1.0022430000 
 H        2.6881580000    -1.7095100000    -1.4652910000 
 H        2.6987790000    -2.2545850000     0.2191670000 
 H        4.1333410000    -1.4785590000    -0.4726580000 
*
