! RI PBE def2-SVP def2-SVP/J NBO PAL2
% maxcore 2000
% output
    # printlevel mini
    print[ P_Basis ] 0
    print[ P_SCFInfo ] 1
    print[ P_SCFIterInfo ] 1
    print[ P_OrbEn ] 0
    print[ P_Cartesian ] 0
end
*xyz 0 1
 C        0.9424820000    -0.0981320000     0.0172560000 
 C        2.3928990000    -0.0914030000    -0.0160490000 
 C        3.5949450000    -0.0880100000    -0.0300940000 
 C        5.0502830000    -0.0741930000    -0.0770640000 
 N        5.5862710000     1.2198370000     0.3334770000 
 H        0.5217350000    -0.0136310000    -0.9878870000 
 H        0.5632880000     0.7367200000     0.6119910000 
 H        0.5660110000    -1.0225300000     0.4625870000 
 H        5.3613670000    -0.3856200000    -1.0870620000 
 H        5.4340790000    -0.8347220000     0.6117850000 
 H        5.2012310000     1.9510760000    -0.2516540000 
 H        6.5911110000     1.2301270000     0.2071340000 
*
