! RI PBE def2-SVP def2-SVP/J NBO PAL2
% maxcore 2000
% output
    # printlevel mini
    print[ P_Basis ] 0
    print[ P_SCFInfo ] 1
    print[ P_SCFIterInfo ] 1
    print[ P_OrbEn ] 0
    print[ P_Cartesian ] 0
end
*xyz 0 1
 C        2.9139280000    -0.0588510000     1.3736740000 
 C        2.5703400000    -0.0500310000    -0.1052150000 
 C        3.1153360000    -1.2496670000    -0.8722490000 
 C        2.5660420000    -1.2889400000    -2.2936810000 
 N        4.5729540000    -1.2451450000    -0.8059870000 
 H        2.5391050000     0.8376400000     1.8731480000 
 H        3.9938210000    -0.1112120000     1.5190320000 
 H        2.4707740000    -0.9261600000     1.8716490000 
 H        2.9597430000     0.8635200000    -0.5745950000 
 H        1.4837730000    -0.0161000000    -0.2373600000 
 H        2.7850920000    -2.1571480000    -0.3497950000 
 H        2.8555640000    -0.3858020000    -2.8413500000 
 H        1.4738840000    -1.3506650000    -2.3033890000 
 H        2.9558640000    -2.1515180000    -2.8410490000 
 H        4.9365080000    -0.4457580000    -1.3152230000 
 H        4.9504830000    -2.0702750000    -1.2562100000 
*
