! RI PBE def2-SVP def2-SVP/J NBO PAL2
% maxcore 2000
% output
    # printlevel mini
    print[ P_Basis ] 0
    print[ P_SCFInfo ] 1
    print[ P_SCFIterInfo ] 1
    print[ P_OrbEn ] 0
    print[ P_Cartesian ] 0
end
*xyz 0 1
 C        0.8572670000    -0.0328100000     0.0507820000 
 C        2.3747340000    -0.0371830000     0.0449840000 
 C        2.9450030000     1.1393560000     0.8393810000 
 C        4.3988850000     1.1591940000     0.8506900000 
 N        5.5485820000     1.1582640000     0.8474230000 
 H        0.4627950000    -0.8762390000    -0.5185240000 
 H        0.4608560000     0.8835020000    -0.3948330000 
 H        0.4635920000    -0.1053240000     1.0681840000 
 H        2.7512920000     0.0113820000    -0.9800630000 
 H        2.7539930000    -0.9696190000     0.4711310000 
 H        2.5961800000     1.1040650000     1.8763540000 
 H        2.5934210000     2.0879120000     0.4210920000 
*
