! RI PBE def2-SVP def2-SVP/J NBO PAL2
% maxcore 2000
% output
    # printlevel mini
    print[ P_Basis ] 0
    print[ P_SCFInfo ] 1
    print[ P_SCFIterInfo ] 1
    print[ P_OrbEn ] 0
    print[ P_Cartesian ] 0
end
*xyz 0 1
 C        1.0736670000    -0.0185210000    -0.1087900000 
 C        2.5782210000    -0.1314830000     0.0156570000 
 N        3.0825530000     0.7603430000     1.0419100000 
 C        4.4730440000     1.1385200000     0.9272240000 
 C        3.3987890000     2.1042070000     0.6064600000 
 H        0.6939920000    -0.7124890000    -0.8620970000 
 H        0.7804020000     0.9925680000    -0.4026920000 
 H        0.5930450000    -0.2447080000     0.8449780000 
 H        3.0538300000     0.0725240000    -0.9604030000 
 H        2.8563240000    -1.1519700000     0.2980610000 
 H        5.0396690000     0.7347970000     0.0907340000 
 H        5.0235370000     1.2168270000     1.8586360000 
 H        3.2482430000     2.3419890000    -0.4448210000 
 H        3.1508830000     2.9022950000     1.2978320000 
*
