! RI PBE def2-SVP def2-SVP/J NBO PAL2
% maxcore 2000
% output
    # printlevel mini
    print[ P_Basis ] 0
    print[ P_SCFInfo ] 1
    print[ P_SCFIterInfo ] 1
    print[ P_OrbEn ] 0
    print[ P_Cartesian ] 0
end
*xyz 0 1
 C        0.9472600000    -0.0175770000    -0.0523190000 
 C        2.4614800000    -0.0087580000    -0.0552880000 
 N        2.9920770000    -0.6560290000     1.1258740000 
 C        4.4373570000    -0.7357210000     1.1472980000 
 C        4.9276010000    -1.4821110000     2.3702090000 
 H        0.5518470000     0.4975700000    -0.9303130000 
 H        0.5614320000     0.4738520000     0.8431740000 
 H        0.5601820000    -1.0410400000    -0.0681370000 
 H        2.8240000000     1.0255800000    -0.0612980000 
 H        2.8338830000    -0.4692170000    -0.9889770000 
 H        2.6016670000    -1.5890540000     1.2033130000 
 H        4.8286890000     0.2880160000     1.1588970000 
 H        4.8449030000    -1.2090500000     0.2349690000 
 H        4.5704010000    -1.0013380000     3.2831940000 
 H        6.0188700000    -1.5138790000     2.3971090000 
 H        4.5673530000    -2.5154440000     2.3705750000 
*
