! RI PBE def2-SVP def2-SVP/J NBO PAL2
% maxcore 2000
% output
    # printlevel mini
    print[ P_Basis ] 0
    print[ P_SCFInfo ] 1
    print[ P_SCFIterInfo ] 1
    print[ P_OrbEn ] 0
    print[ P_Cartesian ] 0
end
*xyz 0 1
 C        1.0295720000     0.0855170000     0.0322560000 
 C        2.5590290000     0.0544740000     0.0908890000 
 N        3.1215980000     0.1347020000     1.4351660000 
 C        3.0681670000    -1.1395690000    -0.5799490000 
 C        3.4502190000    -2.1357950000    -1.1294040000 
 H        0.6584330000     0.9989380000     0.5043030000 
 H        0.6119660000    -0.7743320000     0.5611840000 
 H        0.6710510000     0.0599250000    -0.9991240000 
 H        2.9391120000     0.9224540000    -0.4624230000 
 H        2.8689650000    -0.6921830000     1.9640120000 
 H        2.7298290000     0.9339570000     1.9195630000 
 H        3.8027570000    -3.0135880000    -1.6170720000 
*
