! RI PBE def2-SVP def2-SVP/J NBO PAL2
% maxcore 2000
% output
    # printlevel mini
    print[ P_Basis ] 0
    print[ P_SCFInfo ] 1
    print[ P_SCFIterInfo ] 1
    print[ P_OrbEn ] 0
    print[ P_Cartesian ] 0
end
*xyz 0 1
 C        2.7625030000     0.1898930000     1.3865870000 
 C        2.4832760000     0.1530480000    -0.1031340000 
 N        2.9882430000    -1.0361360000    -0.7621850000 
 C        2.4814470000    -1.1351390000    -2.1099150000 
 C        4.4299220000    -1.1114070000    -0.7515050000 
 H        2.2480220000     1.0391940000     1.8417820000 
 H        3.8259810000     0.2995100000     1.6081270000 
 H        2.4062470000    -0.7253660000     1.8646380000 
 H        2.8827740000     1.0708400000    -0.5792860000 
 H        1.4002480000     0.1719600000    -0.2598850000 
 H        1.3889830000    -1.1387950000    -2.0986780000 
 H        2.8189930000    -2.0685160000    -2.5666010000 
 H        2.8131070000    -0.3018700000    -2.7579350000 
 H        4.8089360000    -1.1372790000     0.2708550000 
 H        4.9058070000    -0.2591120000    -1.2732760000 
 H        4.7518120000    -2.0300240000    -1.2469890000 
*
