! RI PBE def2-SVP def2-SVP/J NBO PAL2
% maxcore 2000
% output
    # printlevel mini
    print[ P_Basis ] 0
    print[ P_SCFInfo ] 1
    print[ P_SCFIterInfo ] 1
    print[ P_OrbEn ] 0
    print[ P_Cartesian ] 0
end
*xyz 0 1
 C        2.8189520000     1.2098370000     0.3760090000 
 N        2.1400370000    -0.0346100000     0.0832530000 
 C        2.8205320000    -1.1902360000     0.5741620000 
 C        2.7806790000    -2.4589600000    -0.1997490000 
 C        4.0827660000    -1.7156320000    -0.0607020000 
 H        2.2618690000     2.0427730000    -0.0575170000 
 H        3.8562900000     1.2514590000     0.0080000000 
 H        2.8476630000     1.3623790000     1.4584670000 
 H        1.9694450000    -0.1241130000    -0.9096360000 
 H        2.7607310000    -1.2835040000     1.6553300000 
 H        2.2940580000    -2.4373550000    -1.1687240000 
 H        2.6523960000    -3.3907250000     0.3364390000 
 H        4.4512970000    -1.1942980000    -0.9368580000 
 H        4.8553760000    -2.1391150000     0.5698250000 
*
