! RI PBE def2-SVP def2-SVP/J NBO PAL2
% maxcore 2000
% output
    # printlevel mini
    print[ P_Basis ] 0
    print[ P_SCFInfo ] 1
    print[ P_SCFIterInfo ] 1
    print[ P_OrbEn ] 0
    print[ P_Cartesian ] 0
end
*xyz 0 1
 C        2.8277920000     1.3009890000    -0.4596360000 
 N        2.5520740000    -0.0553970000    -0.0451380000 
 C        3.0978670000    -0.4438650000     1.2463890000 
 C        2.5573840000    -1.8153050000     1.6122170000 
 C        4.6227620000    -0.4211710000     1.3277160000 
 H        2.3347020000     1.4953570000    -1.4146610000 
 H        3.8937090000     1.5526400000    -0.5755490000 
 H        2.4039230000     1.9950550000     0.2722440000 
 H        2.8593470000    -0.7108270000    -0.7545300000 
 H        2.7074830000     0.2832840000     1.9708620000 
 H        2.9124210000    -2.5693830000     0.9013150000 
 H        1.4665880000    -1.8165810000     1.5888730000 
 H        2.8905600000    -2.1191340000     2.6071840000 
 H        5.0535440000    -1.1456190000     0.6283570000 
 H        4.9656680000    -0.6837070000     2.3320180000 
 H        5.0297790000     0.5633530000     1.0878500000 
*
