! RI PBE def2-SVP def2-SVP/J NBO PAL2
% maxcore 2000
% output
    # printlevel mini
    print[ P_Basis ] 0
    print[ P_SCFInfo ] 1
    print[ P_SCFIterInfo ] 1
    print[ P_OrbEn ] 0
    print[ P_Cartesian ] 0
end
*xyz 0 1
 C        1.4501340000    -0.4905200000     0.3299690000 
 N        2.8395480000    -0.0923750000     0.3046410000 
 C        3.1736170000     0.7374340000    -0.8355760000 
 C        4.6099510000     1.1400550000    -0.8023850000 
 C        5.4704530000     0.9347850000    -1.7893260000 
 H        1.2716340000    -1.1559060000     1.1768240000 
 H        1.1113830000    -1.0007310000    -0.5874890000 
 H        0.8196960000     0.3929370000     0.4660660000 
 H        3.4372030000    -0.9096600000     0.3078590000 
 H        2.5467220000     1.6375210000    -0.7777630000 
 H        2.9444980000     0.2597280000    -1.8049190000 
 H        4.9383940000     1.6227880000     0.1153570000 
 H        5.1675550000     0.4443660000    -2.7097660000 
 H        6.5039020000     1.2540770000    -1.7191920000 
*
