! RI PBE def2-SVP def2-SVP/J NBO PAL2
% maxcore 2000
% output
    # printlevel mini
    print[ P_Basis ] 0
    print[ P_SCFInfo ] 1
    print[ P_SCFIterInfo ] 1
    print[ P_OrbEn ] 0
    print[ P_Cartesian ] 0
end
*xyz 0 1
 C        0.9872340000     0.0887630000     0.0082340000 
 N        2.4274960000     0.1015990000    -0.1143450000 
 C        2.9408640000    -1.1272090000    -0.6890020000 
 C        4.3948430000    -1.1705490000    -0.6749000000 
 C        5.5933770000    -1.2153310000    -0.6414270000 
 H        0.6536210000     1.0055100000     0.4968960000 
 H        0.5913340000    -0.7709320000     0.5750500000 
 H        0.5352640000     0.0629500000    -0.9875770000 
 H        2.8603290000     0.2554360000     0.7872740000 
 H        2.5919020000    -1.1957790000    -1.7265850000 
 H        2.5604980000    -2.0312390000    -0.1784850000 
 H        6.6568290000    -1.2506280000    -0.6205300000 
*
