! RI PBE def2-SVP def2-SVP/J NBO PAL2
% maxcore 2000
% output
    # printlevel mini
    print[ P_Basis ] 0
    print[ P_SCFInfo ] 1
    print[ P_SCFIterInfo ] 1
    print[ P_OrbEn ] 0
    print[ P_Cartesian ] 0
end
*xyz 0 1
 N        1.5381530000     0.0075360000    -0.6806520000 
 C        1.8340700000    -0.2204080000     0.7253890000 
 C        2.9347730000    -1.2347540000     0.9266540000 
 C        2.9925640000    -2.4821250000     0.1062570000 
 C        4.0348130000    -1.4180980000    -0.0735320000 
 H        2.2137720000     0.6378770000    -1.0927690000 
 H        0.6300170000     0.4377340000    -0.7883730000 
 H        2.1033810000     0.7006410000     1.2655600000 
 H        0.9232210000    -0.6014270000     1.1993390000 
 H        3.2309220000    -1.3376970000     1.9663470000 
 H        2.2590640000    -2.5748810000    -0.6850430000 
 H        3.2753240000    -3.4072990000     0.5929450000 
 H        3.9926390000    -0.8489350000    -0.9940880000 
 H        5.0362760000    -1.6027560000     0.2951550000 
*
