! RI PBE def2-SVP def2-SVP/J NBO PAL2
% maxcore 2000
% output
    # printlevel mini
    print[ P_Basis ] 0
    print[ P_SCFInfo ] 1
    print[ P_SCFIterInfo ] 1
    print[ P_OrbEn ] 0
    print[ P_Cartesian ] 0
end
*xyz 0 1
 N        0.9889950000     0.0411760000     0.0156480000 
 C        2.1401130000     0.0414950000     0.0276910000 
 C        3.5713070000     0.0419100000     0.0353610000 
 C        4.3120860000    -0.6981170000    -1.0510180000 
 C        4.3118360000     0.7890980000    -1.0462900000 
 H        4.0079810000     0.0386760000     1.0267720000 
 H        3.7124900000    -1.2061840000    -1.7943840000 
 H        5.2116310000    -1.2195980000    -0.7513390000 
 H        3.7123830000     1.3017990000    -1.7866070000 
 H        5.2113780000     1.3088340000    -0.7435340000 
*
