! RI PBE def2-SVP def2-SVP/J NBO PAL2
% maxcore 2000
% output
    # printlevel mini
    print[ P_Basis ] 0
    print[ P_SCFInfo ] 1
    print[ P_SCFIterInfo ] 1
    print[ P_OrbEn ] 0
    print[ P_Cartesian ] 0
end
*xyz 0 1
 N        1.0105480000     0.0625380000    -0.0502270000 
 C        2.1577510000    -0.0119300000     0.0064650000 
 C        3.5911120000    -0.0811340000     0.0686940000 
 C        4.3141140000    -0.7913760000    -1.0168840000 
 N        4.3871710000     0.6523270000    -0.9157280000 
 H        3.9968450000    -0.0819840000     1.0745730000 
 H        3.7145800000    -1.2391450000    -1.8019130000 
 H        5.2261220000    -1.3197170000    -0.7631440000 
 H        3.7783570000     1.0945210000    -1.5970370000 
*
