! RI PBE def2-SVP def2-SVP/J NBO PAL2
% maxcore 2000
% output
    # printlevel mini
    print[ P_Basis ] 0
    print[ P_SCFInfo ] 1
    print[ P_SCFIterInfo ] 1
    print[ P_OrbEn ] 0
    print[ P_Cartesian ] 0
end
*xyz 0 1
 N        0.8923140000    -0.0103040000     0.0470290000 
 C        2.3437840000    -0.0284410000     0.0880790000 
 C        2.8939690000    -0.3855570000    -1.2911140000 
 C        4.3455370000    -0.3968180000    -1.3316320000 
 C        5.5462010000    -0.3988420000    -1.3408520000 
 H        0.5145860000     0.3555950000     0.9112380000 
 H        0.5252630000    -0.9483280000    -0.0610320000 
 H        2.7697830000    -0.7211810000     0.8283490000 
 H        2.6930550000     0.9722550000     0.3547330000 
 H        2.5027380000     0.3288710000    -2.0217340000 
 H        2.5187830000    -1.3717670000    -1.5894050000 
 H        6.6101770000    -0.4006730000    -1.3572590000 
*
