! RI PBE def2-SVP def2-SVP/J NBO PAL2
% maxcore 2000
% output
    # printlevel mini
    print[ P_Basis ] 0
    print[ P_SCFInfo ] 1
    print[ P_SCFIterInfo ] 1
    print[ P_OrbEn ] 0
    print[ P_Cartesian ] 0
end
*xyz 0 1
 N        1.0526930000     0.0713620000     0.0741560000 
 C        2.3986530000     0.0212850000     0.0171590000 
 C        3.1315020000    -0.7258100000    -0.8332570000 
 C        4.5411360000    -0.6969010000    -0.8003480000 
 N        5.6961450000    -0.6854830000    -0.7873500000 
 H        0.5892850000     0.6567720000     0.7405480000 
 H        0.4831940000    -0.4739780000    -0.5465920000 
 H        2.9066550000     0.6540750000     0.7374640000 
 H        2.6641170000    -1.3718110000    -1.5686000000 
*
