! RI PBE def2-SVP def2-SVP/J NBO PAL2
% maxcore 2000
% output
    # printlevel mini
    print[ P_Basis ] 0
    print[ P_SCFInfo ] 1
    print[ P_SCFIterInfo ] 1
    print[ P_OrbEn ] 0
    print[ P_Cartesian ] 0
end
*xyz 0 1
 C       -0.7948880000    -1.0034830000    -0.2174990000 
 C       -1.1947680000     0.3906360000     0.2488990000 
 C        0.0131680000     1.2092120000    -0.1788440000 
 O        1.1340890000     0.3409050000    -0.0937890000 
 C        0.6980440000    -1.0008620000     0.0711450000 
 H       -0.9759880000    -1.1109970000    -1.2907670000 
 H       -1.3241420000    -1.8058070000     0.2987760000 
 H       -1.3031620000     0.4101360000     1.3370770000 
 H       -2.1261890000     0.7488230000    -0.1921570000 
 H        0.1918090000     2.0788810000     0.4594620000 
 H       -0.0969760000     1.5622000000    -1.2131600000 
 H        0.9003590000    -1.3260380000     1.1006410000 
 H        1.2685440000    -1.6426060000    -0.6058840000 
*
