! RI PBE def2-SVP def2-SVP/J NBO PAL2
% maxcore 2000
% output
    # printlevel mini
    print[ P_Basis ] 0
    print[ P_SCFInfo ] 1
    print[ P_SCFIterInfo ] 1
    print[ P_OrbEn ] 0
    print[ P_Cartesian ] 0
end
*xyz 0 1
 C        1.0064730000     0.1577470000    -0.0652910000 
 C        2.4986800000    -0.0097010000    -0.0588340000 
 C        3.1876200000    -0.7991460000    -1.1419800000 
 C        3.3528480000     0.6772630000    -1.0783350000 
 O        4.6208830000     1.1385340000    -0.7315540000 
 H        0.5059220000    -0.7145010000     0.3642250000 
 H        0.6321580000     0.2794050000    -1.0853300000 
 H        0.6979910000     1.0364120000     0.5084430000 
 H        2.9601350000    -0.0959760000     0.9204480000 
 H        2.5841380000    -1.2169450000    -1.9392800000 
 H        4.0515910000    -1.3872980000    -0.8595780000 
 H        2.8401620000     1.2709700000    -1.8342880000 
 H        4.5164900000     1.9380150000    -0.2086350000 
*
