! RI PBE def2-SVP def2-SVP/J NBO PAL2
% maxcore 2000
% output
    # printlevel mini
    print[ P_Basis ] 0
    print[ P_SCFInfo ] 1
    print[ P_SCFIterInfo ] 1
    print[ P_OrbEn ] 0
    print[ P_Cartesian ] 0
end
*xyz 0 1
 C        1.1095480000    -0.1153510000     0.1086110000 
 C        2.6004170000     0.0346090000    -0.0022230000 
 C        3.3049340000     1.1086090000     0.8372180000 
 C        4.1696760000    -0.0533430000     1.3258910000 
 O        3.3205840000    -1.0113660000     0.6806910000 
 H        0.6065640000     0.7187100000    -0.3889540000 
 H        0.8011150000    -0.1368840000     1.1564130000 
 H        0.7815820000    -1.0430700000    -0.3663360000 
 H        2.9005380000     0.0648000000    -1.0588950000 
 H        2.6640260000     1.5367220000     1.6090720000 
 H        3.8079230000     1.9081790000     0.2950870000 
 H        4.2241090000    -0.2162430000     2.4057970000 
 H        5.1841840000    -0.0693530000     0.9104380000 
*
