! RI PBE def2-SVP def2-SVP/J NBO PAL2
% maxcore 2000
% output
    # printlevel mini
    print[ P_Basis ] 0
    print[ P_SCFInfo ] 1
    print[ P_SCFIterInfo ] 1
    print[ P_OrbEn ] 0
    print[ P_Cartesian ] 0
end
*xyz 0 1
 C        1.0149040000    -0.0677580000    -0.0098100000 
 C        2.5003900000     0.0792560000     0.0830010000 
 O        3.2773070000    -0.6928920000    -0.8258620000 
 C        3.3006410000     0.7244300000    -0.9543180000 
 C        4.6030870000     1.4032530000    -0.6719510000 
 H        0.6930940000    -1.0135480000     0.4334610000 
 H        0.6905680000    -0.0517620000    -1.0519440000 
 H        0.5134830000     0.7427280000     0.5259130000 
 H        2.9085800000     0.0935450000     1.0945510000 
 H        2.7629300000     1.0864520000    -1.8317360000 
 H        5.0621810000     0.9957270000     0.2306280000 
 H        4.4556490000     2.4779680000    -0.5357190000 
 H        5.2990780000     1.2618900000    -1.5027230000 
*
