! RI PBE def2-SVP def2-SVP/J NBO PAL2
% maxcore 2000
% output
    # printlevel mini
    print[ P_Basis ] 0
    print[ P_SCFInfo ] 1
    print[ P_SCFIterInfo ] 1
    print[ P_OrbEn ] 0
    print[ P_Cartesian ] 0
end
*xyz 0 1
 C        0.7999140000    -0.0248480000    -0.1014950000 
 C        2.2986170000    -0.0375080000    -0.0130950000 
 O        2.8005580000     0.1112150000     1.2856060000 
 C        3.1013690000    -0.8715900000    -0.9646000000 
 C        3.1176380000     0.6351230000    -1.0547540000 
 H        0.3691900000    -0.8676510000     0.4491480000 
 H        0.4661330000    -0.1000200000    -1.1383280000 
 H        0.4026790000     0.8994230000     0.3251010000 
 H        2.5843740000    -0.6850940000     1.7798910000 
 H        2.5795130000    -1.4302250000    -1.7325970000 
 H        3.9908510000    -1.3483060000    -0.5718250000 
 H        2.6081790000     1.1102310000    -1.8840870000 
 H        4.0124760000     1.1386590000    -0.7123740000 
*
