! RI PBE def2-SVP def2-SVP/J NBO PAL2
% maxcore 2000
% output
    # printlevel mini
    print[ P_Basis ] 0
    print[ P_SCFInfo ] 1
    print[ P_SCFIterInfo ] 1
    print[ P_OrbEn ] 0
    print[ P_Cartesian ] 0
end
*xyz 0 1
 C        0.9245900000    -0.0089610000    -0.1612210000 
 C        2.4097130000    -0.2294550000     0.0813070000 
 C        3.1074250000     1.0248710000     0.5131230000 
 C        4.4749740000     1.3393000000     0.1165070000 
 O        3.3735910000     1.9862410000    -0.5001410000 
 H        0.4353370000    -0.9299330000    -0.4848790000 
 H        0.7689610000     0.7467400000    -0.9341520000 
 H        0.4217020000     0.3330590000     0.7475490000 
 H        2.8905210000    -0.5990630000    -0.8296460000 
 H        2.5581220000    -0.9931880000     0.8532580000 
 H        2.7418060000     1.4677030000     1.4409530000 
 H        5.0164650000     0.6407020000    -0.5179670000 
 H        5.0931920000     1.9725930000     0.7484100000 
*
