! RI PBE def2-SVP def2-SVP/J NBO PAL2
% maxcore 2000
% output
    # printlevel mini
    print[ P_Basis ] 0
    print[ P_SCFInfo ] 1
    print[ P_SCFIterInfo ] 1
    print[ P_OrbEn ] 0
    print[ P_Cartesian ] 0
end
*xyz 0 1
 C        2.5287830000    -1.1700610000    -0.1802950000 
 C        2.1382210000     0.0481550000     0.1634480000 
 C        3.0254360000     1.0786850000     0.7483090000 
 C        4.3897470000     1.2997770000     0.2836330000 
 O        3.3488420000     2.1909610000    -0.0809410000 
 H        1.8332700000    -1.8919220000    -0.5925770000 
 H        3.5577830000    -1.4914720000    -0.0569790000 
 H        1.0975860000     0.3401290000     0.0403570000 
 H        2.7884540000     1.3677620000     1.7730340000 
 H        4.7793900000     0.6890450000    -0.5265230000 
 H        5.1311790000     1.7060510000     0.9673540000 
*
