! RI PBE def2-SVP def2-SVP/J NBO PAL2
% maxcore 2000
% output
    # printlevel mini
    print[ P_Basis ] 0
    print[ P_SCFInfo ] 1
    print[ P_SCFIterInfo ] 1
    print[ P_OrbEn ] 0
    print[ P_Cartesian ] 0
end
*xyz 0 1
 C        1.4905500000     0.1702410000     0.4057000000 
 C        2.9668650000     0.0120580000     0.0830770000 
 C        3.2136410000    -0.7223940000    -1.2256000000 
 C        4.6872950000    -0.8879210000    -1.5415570000 
 O        4.9251340000    -1.5173140000    -2.7834350000 
 H        1.3408550000     0.7017730000     1.3481910000 
 H        0.9991570000    -0.8029700000     0.4915350000 
 H        0.9741730000     0.7311350000    -0.3781150000 
 H        3.4655930000    -0.5223960000     0.8999700000 
 H        3.4391870000     0.9999400000     0.0355800000 
 H        2.7348280000    -0.1882210000    -2.0535800000 
 H        2.7419380000    -1.7135100000    -1.1799350000 
 H        5.1854300000    -1.4310860000    -0.7245790000 
 H        5.1667790000     0.0923590000    -1.6118050000 
 H        4.5122840000    -2.3843840000    -2.7640460000 
*
