! RI PBE def2-SVP def2-SVP/J NBO PAL2
% maxcore 2000
% output
    # printlevel mini
    print[ P_Basis ] 0
    print[ P_SCFInfo ] 1
    print[ P_SCFIterInfo ] 1
    print[ P_OrbEn ] 0
    print[ P_Cartesian ] 0
end
*xyz 0 1
 C        1.0193280000     0.0397160000    -0.0589860000 
 C        2.4947770000     0.0430430000    -0.2082680000 
 C        3.2292870000     1.0406760000    -0.7028560000 
 C        4.6823910000     0.9198090000    -0.7974910000 
 O        5.4162130000     1.7726630000    -1.2309130000 
 H        0.7394110000    -0.1130520000     0.9882860000 
 H        0.5783270000    -0.7912190000    -0.6189320000 
 H        0.5723890000     0.9713680000    -0.4073050000 
 H        3.0186630000    -0.8555980000     0.1184230000 
 H        2.7859060000     1.9695090000    -1.0503550000 
 H        5.0888970000    -0.0488050000    -0.4295020000 
*
