! RI PBE def2-SVP def2-SVP/J NBO PAL2
% maxcore 2000
% output
    # printlevel mini
    print[ P_Basis ] 0
    print[ P_SCFInfo ] 1
    print[ P_SCFIterInfo ] 1
    print[ P_OrbEn ] 0
    print[ P_Cartesian ] 0
end
*xyz 0 1
 C        0.9373010000    -0.0519790000     0.1266840000 
 C        2.4286210000    -0.0281830000     0.0285500000 
 C        3.0902030000    -0.3216440000    -1.0868550000 
 C        3.1686650000     0.3430780000     1.2819100000 
 O        2.9073030000    -0.5469660000     2.3526620000 
 H        0.4774410000    -0.4038400000    -0.7974300000 
 H        0.5517040000     0.9496700000     0.3454700000 
 H        0.6155840000    -0.6950330000     0.9498080000 
 H        2.5740220000    -0.5900580000    -2.0025300000 
 H        4.1744360000    -0.2929400000    -1.1225800000 
 H        2.8370000000     1.3240180000     1.6368430000 
 H        4.2440160000     0.4095910000     1.0743020000 
 H        3.1860030000    -1.4242930000     2.0756550000 
*
