! RI PBE def2-SVP def2-SVP/J NBO PAL2
% maxcore 2000
% output
    # printlevel mini
    print[ P_Basis ] 0
    print[ P_SCFInfo ] 1
    print[ P_SCFIterInfo ] 1
    print[ P_OrbEn ] 0
    print[ P_Cartesian ] 0
end
*xyz 0 1
 C        0.9487270000    -0.0791080000     0.0671040000 
 C        2.3988580000    -0.0976350000     0.0587170000 
 C        3.6017760000    -0.1024860000     0.0623670000 
 C        5.0590260000    -0.1245860000     0.0261760000 
 O        5.6093440000     0.6021150000    -1.0540370000 
 H        0.5672990000     0.7115580000    -0.5838350000 
 H        0.5680670000     0.1062980000     1.0745780000 
 H        0.5373260000    -1.0300970000    -0.2799100000 
 H        5.4017840000    -1.1688660000     0.0140520000 
 H        5.4610180000     0.3331140000     0.9338600000 
 H        5.1463760000     0.3357940000    -1.8528530000 
*
