! RI PBE def2-SVP def2-SVP/J NBO PAL2
% maxcore 2000
% output
    # printlevel mini
    print[ P_Basis ] 0
    print[ P_SCFInfo ] 1
    print[ P_SCFIterInfo ] 1
    print[ P_OrbEn ] 0
    print[ P_Cartesian ] 0
end
*xyz 0 1
 C        2.7974360000     0.7506890000    -1.2805040000 
 C        2.4170690000     0.0422330000     0.0073040000 
 C        2.9866070000     0.7052320000     1.2541050000 
 C        2.5063210000     0.0385800000     2.5291200000 
 O        4.4043500000     0.7628390000     1.2118550000 
 H        2.4113480000     0.2217420000    -2.1546130000 
 H        3.8819950000     0.8252420000    -1.3770350000 
 H        2.3939350000     1.7669160000    -1.3014620000 
 H        2.7643210000    -0.9997350000    -0.0177670000 
 H        1.3267760000    -0.0049950000     0.1041750000 
 H        2.6769650000     1.7566420000     1.2626820000 
 H        2.7962240000    -1.0178470000     2.5450320000 
 H        1.4177790000     0.0845680000     2.6135380000 
 H        2.9430380000     0.5261070000     3.4024510000 
 H        4.7376260000    -0.1389250000     1.2502190000 
*
