! RI PBE def2-SVP def2-SVP/J NBO PAL2
% maxcore 2000
% output
    # printlevel mini
    print[ P_Basis ] 0
    print[ P_SCFInfo ] 1
    print[ P_SCFIterInfo ] 1
    print[ P_OrbEn ] 0
    print[ P_Cartesian ] 0
end
*xyz 0 1
 C        0.9624970000    -0.0002450000     0.1052300000 
 C        2.4494890000     0.1159440000    -0.2073960000 
 C        3.1102800000     1.3565570000     0.3511180000 
 C        2.9128570000     1.6461620000     1.8172500000 
 O        3.7738640000     2.0828010000    -0.3474990000 
 H        0.5457780000    -0.8972610000    -0.3563620000 
 H        0.4095300000     0.8587840000    -0.2824600000 
 H        0.7742370000    -0.0657000000     1.1788220000 
 H        2.6282890000     0.1135930000    -1.2838520000 
 H        2.9786240000    -0.7482150000     0.2140750000 
 H        3.0282750000     0.7427980000     2.4215990000 
 H        1.8958230000     2.0137850000     1.9836290000 
 H        3.6192560000     2.4097060000     2.1378460000 
*
