! RI PBE def2-SVP def2-SVP/J NBO PAL2
% maxcore 2000
% output
    # printlevel mini
    print[ P_Basis ] 0
    print[ P_SCFInfo ] 1
    print[ P_SCFIterInfo ] 1
    print[ P_OrbEn ] 0
    print[ P_Cartesian ] 0
end
*xyz 0 1
 C        1.0220790000     0.0990760000    -0.0972730000 
 C        2.5289250000     0.1257210000    -0.1401110000 
 O        3.0299570000    -0.7214310000     0.8627380000 
 C        4.4342090000    -0.7572750000     0.8973280000 
 C        4.8742850000    -1.6888440000     1.9980750000 
 H        0.6080380000     0.7511340000    -0.8695730000 
 H        0.6595660000     0.4401990000     0.8742590000 
 H        0.6511880000    -0.9138960000    -0.2645640000 
 H        2.9016840000     1.1508090000     0.0135690000 
 H        2.8932310000    -0.2034690000    -1.1261630000 
 H        4.8315110000     0.2560210000     1.0669300000 
 H        4.8251680000    -1.0963630000    -0.0750620000 
 H        4.4999560000    -1.3452550000     2.9642450000 
 H        5.9646200000    -1.7334270000     2.0453840000 
 H        4.4941860000    -2.6970090000     1.8226280000 
*
