! RI PBE def2-SVP def2-SVP/J NBO PAL2
% maxcore 2000
% output
    # printlevel mini
    print[ P_Basis ] 0
    print[ P_SCFInfo ] 1
    print[ P_SCFIterInfo ] 1
    print[ P_OrbEn ] 0
    print[ P_Cartesian ] 0
end
*xyz 0 1
 C        0.9136000000     0.0154680000     0.1644550000 
 C        2.4157760000    -0.0225290000     0.0585340000 
 O        3.0541750000    -0.9584680000     0.4862330000 
 C        3.1239310000     1.1094340000    -0.5826520000 
 C        2.5361770000     2.1883420000    -1.0881330000 
 H        0.5734860000    -0.8918270000     0.6593770000 
 H        0.4562210000     0.0841340000    -0.8258280000 
 H        0.5866780000     0.8874890000     0.7365280000 
 H        4.2030090000     0.9912500000    -0.6121590000 
 H        1.4599600000     2.3205070000    -1.0660590000 
 H        3.1139860000     2.9834000000    -1.5451870000 
*
