! RI PBE def2-SVP def2-SVP/J NBO PAL2
% maxcore 2000
% output
    # printlevel mini
    print[ P_Basis ] 0
    print[ P_SCFInfo ] 1
    print[ P_SCFIterInfo ] 1
    print[ P_OrbEn ] 0
    print[ P_Cartesian ] 0
end
*xyz 0 1
 C        0.8914870000    -0.0644990000     0.0562800000 
 C        2.4128110000    -0.0335560000     0.0077510000 
 O        2.9076890000    -0.3713580000    -1.2749860000 
 C        2.9327010000     1.2575760000     0.4613730000 
 C        3.3390460000     2.3335530000     0.8059240000 
 H        0.5398140000    -1.0411570000    -0.2795250000 
 H        0.4732660000     0.7057850000    -0.5960240000 
 H        0.5313130000     0.1164990000     1.0708580000 
 H        2.8053450000    -0.8113190000     0.6707850000 
 H        2.7434900000     0.3728290000    -1.8619570000 
 H        3.7097370000     3.2818490000     1.1166310000 
*
