! RI PBE def2-SVP def2-SVP/J NBO PAL2
% maxcore 2000
% output
    # printlevel mini
    print[ P_Basis ] 0
    print[ P_SCFInfo ] 1
    print[ P_SCFIterInfo ] 1
    print[ P_OrbEn ] 0
    print[ P_Cartesian ] 0
end
*xyz 0 1
 C        1.0737110000     0.8136430000     1.1604780000 
 C        2.0400230000    -0.0456360000     0.3884540000 
 O        1.3139320000    -0.7506510000    -0.6009370000 
 C        2.0148430000    -1.5766390000    -1.3964590000 
 C        3.3215830000    -1.8250540000    -1.3788880000 
 H        1.6057740000     1.3717620000     1.9336730000 
 H        0.3096050000     0.2007690000     1.6421440000 
 H        0.5771310000     1.5273120000     0.5005080000 
 H        2.5463050000    -0.7633250000     1.0466480000 
 H        2.8139620000     0.5638350000    -0.0954670000 
 H        1.3538850000    -2.0576220000    -2.1102310000 
 H        4.0098560000    -1.3653090000    -0.6833700000 
 H        3.7248890000    -2.5247760000    -2.0974440000 
*
