! RI PBE def2-SVP def2-SVP/J NBO PAL2
% maxcore 2000
% output
    # printlevel mini
    print[ P_Basis ] 0
    print[ P_SCFInfo ] 1
    print[ P_SCFIterInfo ] 1
    print[ P_OrbEn ] 0
    print[ P_Cartesian ] 0
end
*xyz 0 1
 C        1.1064490000    -0.0176030000     0.6294110000 
 O        2.4900340000     0.0765770000     0.3901300000 
 C        3.1036230000    -1.0990860000     0.1135340000 
 C        4.4041390000    -1.1875340000    -0.1348410000 
 C        5.0959120000    -2.4711440000    -0.4410350000 
 H        0.7498370000     0.9907820000     0.8351880000 
 H        0.8920950000    -0.6545140000     1.4956190000 
 H        0.5746290000    -0.4116600000    -0.2445520000 
 H        2.4580250000    -1.9773590000     0.1070810000 
 H        4.9939550000    -0.2751590000    -0.1134400000 
 H        4.3981230000    -3.3118550000    -0.4327500000 
 H        5.8851970000    -2.6861820000     0.2867840000 
 H        5.5744810000    -2.4451750000    -1.4255300000 
*
