! RI PBE def2-SVP def2-SVP/J NBO PAL2
% maxcore 2000
% output
    # printlevel mini
    print[ P_Basis ] 0
    print[ P_SCFInfo ] 1
    print[ P_SCFIterInfo ] 1
    print[ P_OrbEn ] 0
    print[ P_Cartesian ] 0
end
*xyz 0 1
 C        2.8618170000     1.0412190000     0.4566630000 
 O        2.2765050000     0.2056190000    -0.5108710000 
 C        3.0944610000    -0.6410610000    -1.1776220000 
 C        2.3135170000    -1.4464090000    -2.1582710000 
 C        4.4111290000    -0.7478020000    -0.9920020000 
 H        2.0551000000     1.6396020000     0.8771310000 
 H        3.6116250000     1.7022460000     0.0082590000 
 H        3.3351960000     0.4554380000     1.2522800000 
 H        1.5379080000    -2.0201260000    -1.6440210000 
 H        2.9605830000    -2.1326460000    -2.7021970000 
 H        1.8109410000    -0.7888870000    -2.8725920000 
 H        4.9595180000    -0.1539120000    -0.2749700000 
 H        4.9701090000    -1.4601910000    -1.5817180000 
*
