! RI PBE def2-SVP def2-SVP/J NBO PAL2
% maxcore 2000
% output
    # printlevel mini
    print[ P_Basis ] 0
    print[ P_SCFInfo ] 1
    print[ P_SCFIterInfo ] 1
    print[ P_OrbEn ] 0
    print[ P_Cartesian ] 0
end
*xyz 0 1
 C        1.6685980000     0.6254550000     0.0444010000 
 O        2.9305310000     0.0828320000     0.3146900000 
 C        3.0780950000    -1.2122730000    -0.2130130000 
 C        4.4665800000    -1.6893790000     0.0338750000 
 C        4.7677790000    -2.8633700000     0.5671430000 
 H        1.6407350000     1.6256930000     0.4770720000 
 H        0.8644540000     0.0232060000     0.4905000000 
 H        1.4839760000     0.6994560000    -1.0369950000 
 H        2.8803650000    -1.1912890000    -1.2989080000 
 H        2.3489550000    -1.9034300000     0.2367220000 
 H        5.2555440000    -1.0071770000    -0.2732730000 
 H        3.9946510000    -3.5532280000     0.8916490000 
 H        5.7956470000    -3.1814960000     0.6962260000 
*
