! RI PBE def2-SVP def2-SVP/J NBO PAL2
% maxcore 2000
% output
    # printlevel mini
    print[ P_Basis ] 0
    print[ P_SCFInfo ] 1
    print[ P_SCFIterInfo ] 1
    print[ P_OrbEn ] 0
    print[ P_Cartesian ] 0
end
*xyz 0 1
 O        1.1780220000    -0.6864440000     0.0248150000 
 C        2.2146830000    -0.0794280000     0.0487010000 
 C        2.9424950000     0.3107300000     1.2634600000 
 C        4.4526290000     0.3405730000     1.1871850000 
 C        3.7046970000     1.6161780000     1.2248080000 
 H        2.7104090000     0.2394960000    -0.8991270000 
 H        2.4809190000     0.0124600000     2.1963720000 
 H        4.9064760000     0.0412220000     0.2497560000 
 H        4.9845180000     0.0177310000     2.0722800000 
 H        3.6419960000     2.1994790000     0.3136310000 
 H        3.7061670000     2.1991130000     2.1363200000 
*
