! RI PBE def2-SVP def2-SVP/J NBO PAL2
% maxcore 2000
% output
    # printlevel mini
    print[ P_Basis ] 0
    print[ P_SCFInfo ] 1
    print[ P_SCFIterInfo ] 1
    print[ P_OrbEn ] 0
    print[ P_Cartesian ] 0
end
*xyz 0 1
 O        2.8825770000    -0.3275050000     1.3197500000 
 C        2.3925230000     0.1584720000     0.0850500000 
 C        2.9013210000    -0.7494040000    -1.0191410000 
 C        4.3871750000    -0.7244620000    -1.1601160000 
 C        5.0351940000    -0.4348390000    -2.2799230000 
 H        2.6308410000     0.2845850000     2.0141750000 
 H        2.7353020000     1.1862460000    -0.0967580000 
 H        1.2938020000     0.1608990000     0.0754100000 
 H        2.4290950000    -0.4587670000    -1.9624050000 
 H        2.5691330000    -1.7687170000    -0.7873450000 
 H        4.9495390000    -0.9591050000    -0.2599400000 
 H        4.5051590000    -0.1949610000    -3.1972880000 
 H        6.1182590000    -0.4308410000    -2.3245600000 
*
