! RI PBE def2-SVP def2-SVP/J NBO PAL2
% maxcore 2000
% output
    # printlevel mini
    print[ P_Basis ] 0
    print[ P_SCFInfo ] 1
    print[ P_SCFIterInfo ] 1
    print[ P_OrbEn ] 0
    print[ P_Cartesian ] 0
end
*xyz 0 1
 O       -0.3732630000    -1.0513750000    -0.0021170000 
 C       -1.1441900000     0.0364460000    -0.0019660000 
 C       -0.3814500000     1.1527500000     0.0004980000 
 C        0.9349530000     0.6321310000     0.0018320000 
 N        0.9450430000    -0.6701690000     0.0002950000 
 H       -2.2089360000    -0.1363440000    -0.0037530000 
 H       -0.7009460000     2.1807100000     0.0012490000 
 H        1.8753790000     1.1638620000     0.0038620000 
*
