! RI PBE def2-SVP def2-SVP/J NBO PAL2
% maxcore 2000
% output
    # printlevel mini
    print[ P_Basis ] 0
    print[ P_SCFInfo ] 1
    print[ P_SCFIterInfo ] 1
    print[ P_OrbEn ] 0
    print[ P_Cartesian ] 0
end
*xyz 0 1
 C        1.0432770000     0.1720230000     0.0672420000 
 C        2.5467410000    -0.0810630000     0.0395750000 
 C        2.9467450000    -1.2128230000     0.9192070000 
 N        3.5192380000    -2.2302870000     0.4314920000 
 O        3.8053850000    -3.1769010000     1.4026920000 
 H        0.7835460000     1.0316960000    -0.5538040000 
 H        0.6927180000     0.3767000000     1.0822330000 
 H        0.4946140000    -0.6950400000    -0.3066910000 
 H        3.0715630000     0.8225630000     0.3721480000 
 H        2.8858460000    -0.2958650000    -0.9761460000 
 H        2.7309150000    -1.1642240000     1.9900060000 
 H        4.2291920000    -3.8785780000     0.9012450000 
*
