! RI PBE def2-SVP def2-SVP/J NBO PAL2
% maxcore 2000
% output
    # printlevel mini
    print[ P_Basis ] 0
    print[ P_SCFInfo ] 1
    print[ P_SCFIterInfo ] 1
    print[ P_OrbEn ] 0
    print[ P_Cartesian ] 0
end
*xyz 0 1
 C        0.8923470000    -0.3830010000    -0.0421370000 
 C        2.2278660000     0.3315670000    -0.0775960000 
 C        2.5160470000     0.9640920000    -1.4260810000 
 N        3.4950510000     1.9055750000    -1.4175940000 
 O        1.9358020000     0.6482430000    -2.4424440000 
 H        0.7497170000    -0.8872240000     0.9155560000 
 H        0.8334820000    -1.1226010000    -0.8406170000 
 H        0.0684810000     0.3180990000    -0.1867640000 
 H        3.0433690000    -0.3733660000     0.1237540000 
 H        2.2879010000     1.0963320000     0.7037480000 
 H        3.9895750000     2.1532030000    -0.5811740000 
 H        3.7719800000     2.3166920000    -2.2918500000 
*
