! RI PBE def2-SVP def2-SVP/J NBO PAL2
% maxcore 2000
% output
    # printlevel mini
    print[ P_Basis ] 0
    print[ P_SCFInfo ] 1
    print[ P_SCFIterInfo ] 1
    print[ P_OrbEn ] 0
    print[ P_Cartesian ] 0
end
*xyz 0 1
 C        0.8748200000    -0.0299080000     0.0516880000 
 C        2.3903310000    -0.1350600000     0.0281440000 
 N        3.0937860000     1.1405700000     0.1491890000 
 C        2.9131710000    -1.0389430000     1.1366690000 
 O        4.3127140000    -1.1061670000     1.1160370000 
 H        0.5121870000     0.6046570000    -0.7605560000 
 H        0.5313180000     0.4038000000     0.9963400000 
 H        0.4053710000    -1.0119570000    -0.0544480000 
 H        2.7103200000    -0.5747010000    -0.9232300000 
 H        2.6945200000     1.6969640000     0.8977750000 
 H        3.0230180000     1.6847720000    -0.7003460000 
 H        2.5223440000    -2.0530050000     1.0153710000 
 H        2.5468990000    -0.6596950000     2.1069090000 
 H        4.5927820000    -0.2097070000     0.8772470000 
*
