! RI PBE def2-SVP def2-SVP/J NBO PAL2
% maxcore 2000
% output
    # printlevel mini
    print[ P_Basis ] 0
    print[ P_SCFInfo ] 1
    print[ P_SCFIterInfo ] 1
    print[ P_OrbEn ] 0
    print[ P_Cartesian ] 0
end
*xyz 0 1
 C        3.4925730000     1.5666420000    -1.0154620000 
 N        3.7810250000     0.3188220000    -0.3381070000 
 C        3.5812810000    -0.8688300000    -1.1519850000 
 C        4.8002660000    -1.1030200000    -2.0288260000 
 O        5.9688790000    -1.1190440000    -1.2504430000 
 H        3.6162870000     2.3988230000    -0.3202670000 
 H        2.4755640000     1.6119950000    -1.4361010000 
 H        4.1969490000     1.7216330000    -1.8357560000 
 H        3.2432470000     0.2535480000     0.5137240000 
 H        2.6740110000    -0.8123930000    -1.7760650000 
 H        3.4729140000    -1.7232350000    -0.4781990000 
 H        4.8593770000    -0.3296540000    -2.8099540000 
 H        4.7133080000    -2.0679130000    -2.5355380000 
 H        5.8121200000    -0.4539750000    -0.5641220000 
*
