! RI PBE def2-SVP def2-SVP/J NBO PAL2
% maxcore 2000
% output
    # printlevel mini
    print[ P_Basis ] 0
    print[ P_SCFInfo ] 1
    print[ P_SCFIterInfo ] 1
    print[ P_OrbEn ] 0
    print[ P_Cartesian ] 0
end
*xyz 0 1
 C        1.5205970000     0.4121990000     0.4631120000 
 O        2.9088500000     0.2766530000     0.2516470000 
 N        3.2280110000    -1.0623960000     0.1678920000 
 C        4.4675870000    -1.2417400000    -0.0224350000 
 C        5.0123340000    -2.6171330000    -0.1408440000 
 H        1.3322670000     1.4843210000     0.5199000000 
 H        1.2159540000    -0.0660750000     1.3984800000 
 H        0.9518230000    -0.0190310000    -0.3657410000 
 H        5.1386620000    -0.3833220000    -0.0997990000 
 H        4.2141860000    -3.3523520000    -0.0411410000 
 H        5.7658380000    -2.8023270000     0.6307550000 
 H        5.5057020000    -2.7556790000    -1.1077060000 
*
