! RI PBE def2-SVP def2-SVP/J NBO PAL2
% maxcore 2000
% output
    # printlevel mini
    print[ P_Basis ] 0
    print[ P_SCFInfo ] 1
    print[ P_SCFIterInfo ] 1
    print[ P_OrbEn ] 0
    print[ P_Cartesian ] 0
end
*xyz 0 1
 N        1.0582860000    -0.0268950000     0.1879710000 
 C        2.4724670000    -0.2339910000     0.0883140000 
 C        3.1389990000    -0.9768450000    -1.0507030000 
 C        3.2641050000     0.5045600000    -0.9339970000 
 O        4.5250940000     1.0035750000    -0.6250100000 
 H        0.5721410000    -0.9019000000     0.3427210000 
 H        0.6881160000     0.3746580000    -0.6639130000 
 H        2.9668610000    -0.3400450000     1.0491710000 
 H        2.5143710000    -1.3718250000    -1.8433130000 
 H        4.0256340000    -1.5550680000    -0.8207970000 
 H        2.6969200000     1.1026330000    -1.6484850000 
 H        4.4133060000     1.7675530000    -0.0522590000 
*
