! RI PBE def2-SVP def2-SVP/J NBO PAL2
% maxcore 2000
% output
    # printlevel mini
    print[ P_Basis ] 0
    print[ P_SCFInfo ] 1
    print[ P_SCFIterInfo ] 1
    print[ P_OrbEn ] 0
    print[ P_Cartesian ] 0
end
*xyz 0 1
 N        0.9736190000     0.0524050000     0.0119550000 
 C        2.4067610000     0.1064070000     0.0165500000 
 C        3.2050020000     1.1188440000     0.8640380000 
 O        4.0189860000     0.0700430000     1.4008600000 
 C        3.1371500000    -0.9307110000     0.8737990000 
 H        0.5712540000     0.7574230000    -0.5911870000 
 H        0.5947780000     0.1834600000     0.9421150000 
 H        2.7580620000     0.0902270000    -1.0170910000 
 H        2.5956750000     1.6016870000     1.6413470000 
 H        3.7979200000     1.8774180000     0.3442110000 
 H        2.4968830000    -1.3626570000     1.6546420000 
 H        3.6749020000    -1.7335240000     0.3630620000 
*
