! RI PBE def2-SVP def2-SVP/J NBO PAL2
% maxcore 2000
% output
    # printlevel mini
    print[ P_Basis ] 0
    print[ P_SCFInfo ] 1
    print[ P_SCFIterInfo ] 1
    print[ P_OrbEn ] 0
    print[ P_Cartesian ] 0
end
*xyz 0 1
 N        1.0387580000     0.0167040000    -0.1301750000 
 C        2.3800190000     0.0758290000    -0.0352930000 
 C        3.1036840000     0.5368220000     1.0065700000 
 C        4.5420140000     0.5219590000     0.9276440000 
 O        5.3035200000     0.9047380000     1.7882180000 
 H        0.5925260000    -0.3445030000    -0.9504940000 
 H        0.4525320000     0.3339510000     0.6202900000 
 H        2.9094850000    -0.2958480000    -0.9098180000 
 H        2.6405730000     0.9217490000     1.9096270000 
 H        4.9399800000     0.1117890000    -0.0311780000 
*
