! RI PBE def2-SVP def2-SVP/J NBO PAL2
% maxcore 2000
% output
    # printlevel mini
    print[ P_Basis ] 0
    print[ P_SCFInfo ] 1
    print[ P_SCFIterInfo ] 1
    print[ P_OrbEn ] 0
    print[ P_Cartesian ] 0
end
*xyz 0 1
 N        1.0353370000    -0.1005960000    -0.3589470000 
 C        2.2549990000     0.0295130000     0.2242310000 
 O        2.7603310000     1.1117950000     0.4397270000 
 C        2.9114190000    -1.2619050000     0.5719080000 
 C        4.1051770000    -1.2774080000     1.1461930000 
 H        0.5386700000     0.7335900000    -0.6186080000 
 H        0.6188700000    -0.9952020000    -0.5366100000 
 H        2.3883140000    -2.1865020000     0.3434330000 
 H        4.6064220000    -0.3403170000     1.3638220000 
 H        4.6014520000    -2.2039670000     1.4078610000 
*
