! RI PBE def2-SVP def2-SVP/J NBO PAL2
% maxcore 2000
% output
    # printlevel mini
    print[ P_Basis ] 0
    print[ P_SCFInfo ] 1
    print[ P_SCFIterInfo ] 1
    print[ P_OrbEn ] 0
    print[ P_Cartesian ] 0
end
*xyz 0 1
 O        1.1350180000    -0.0554380000     0.4633100000 
 C        2.2732140000     0.0298730000     0.1001760000 
 C        3.2795640000     1.1682950000    -0.1334860000 
 C        4.2675350000     0.0567020000    -0.5466760000 
 N        3.2004560000    -0.8982840000    -0.2779610000 
 H        3.5398550000     1.7207440000     0.7686970000 
 H        2.9893120000     1.8606060000    -0.9229990000 
 H        5.1388730000    -0.0533020000     0.1031050000 
 H        4.5872330000     0.0863100000    -1.5909340000 
 H        3.1503390000    -1.9025970000    -0.3445320000 
*
