! RI PBE def2-SVP def2-SVP/J NBO PAL2
% maxcore 2000
% output
    # printlevel mini
    print[ P_Basis ] 0
    print[ P_SCFInfo ] 1
    print[ P_SCFIterInfo ] 1
    print[ P_OrbEn ] 0
    print[ P_Cartesian ] 0
end
*xyz 0 1
 O        1.0080170000    -0.0623890000     0.1651070000 
 C        2.4053140000    -0.0155560000     0.1156790000 
 C        3.1536360000     1.0185770000     0.9782550000 
 N        4.0981340000    -0.0496720000     1.3466420000 
 C        3.1063590000    -1.0722730000     0.9691100000 
 H        0.6511640000     0.5273810000    -0.5029250000 
 H        2.7732870000    -0.0208930000    -0.9157910000 
 H        2.5037090000     1.3541730000     1.7970430000 
 H        3.6047600000     1.8854110000     0.4871890000 
 H        4.3857360000    -0.0607270000     2.3160650000 
 H        2.4406530000    -1.3840030000     1.7843580000 
 H        3.5135320000    -1.9557190000     0.4715590000 
*
