! RI PBE def2-SVP def2-SVP/J NBO PAL2
% maxcore 2000
% output
    # printlevel mini
    print[ P_Basis ] 0
    print[ P_SCFInfo ] 1
    print[ P_SCFIterInfo ] 1
    print[ P_OrbEn ] 0
    print[ P_Cartesian ] 0
end
*xyz 0 1
 O        1.1776570000    -0.0706520000     0.3522220000 
 C        2.3430580000    -0.0702040000     0.1146550000 
 C        3.4032930000     1.0021700000    -0.1119200000 
 N        4.3300910000    -0.0692090000    -0.5306180000 
 C        3.4036940000    -1.1417420000    -0.1139910000 
 H        3.6600040000     1.5210990000     0.8203360000 
 H        3.1799660000     1.7460140000    -0.8817690000 
 H        5.2112020000    -0.0695210000    -0.0369900000 
 H        3.6605990000    -1.6623730000     0.8172610000 
 H        3.1806460000    -1.8841820000    -0.8852760000 
*
