! RI PBE def2-SVP def2-SVP/J NBO PAL2
% maxcore 2000
% output
    # printlevel mini
    print[ P_Basis ] 0
    print[ P_SCFInfo ] 1
    print[ P_SCFIterInfo ] 1
    print[ P_OrbEn ] 0
    print[ P_Cartesian ] 0
end
*xyz 0 1
 O        2.1112020000    -0.0743470000    -1.1937860000 
 C        2.2591440000    -0.0635960000     0.0021230000 
 C        3.1303020000    -1.0211980000     0.7175490000 
 C        2.8784680000    -2.4661070000     0.4324500000 
 N        4.0580350000    -1.8128680000    -0.0746760000 
 H        1.7344320000     0.6802460000     0.6345620000 
 H        3.4663590000    -0.7291080000     1.7069920000 
 H        2.0691230000    -2.6923530000    -0.2546060000 
 H        3.0407620000    -3.1819500000     1.2305830000 
 H        3.9110750000    -1.5633090000    -1.0514820000 
*
