! RI PBE def2-SVP def2-SVP/J NBO PAL2
% maxcore 2000
% output
    # printlevel mini
    print[ P_Basis ] 0
    print[ P_SCFInfo ] 1
    print[ P_SCFIterInfo ] 1
    print[ P_OrbEn ] 0
    print[ P_Cartesian ] 0
end
*xyz 0 1
 O        1.7133180000    -0.5921560000     0.4410300000 
 C        2.2840710000     0.2777110000    -0.1358230000 
 N        2.9589710000     1.3391980000     0.5132700000 
 C        4.1304850000     1.8061660000    -0.2457060000 
 C        2.9000210000     2.5932030000    -0.2558310000 
 H        2.3266810000     0.3157840000    -1.2512770000 
 H        4.3874060000     1.2650340000    -1.1532020000 
 H        4.9688610000     2.0883480000     0.3786220000 
 H        2.3116370000     2.5924650000    -1.1702470000 
 H        2.7969390000     3.4771570000     0.3608420000 
*
