! RI PBE def2-SVP def2-SVP/J NBO PAL2
% maxcore 2000
% output
    # printlevel mini
    print[ P_Basis ] 0
    print[ P_SCFInfo ] 1
    print[ P_SCFIterInfo ] 1
    print[ P_OrbEn ] 0
    print[ P_Cartesian ] 0
end
*xyz 0 1
 O        0.9720230000    -0.0470450000     0.1438700000 
 N        2.3378430000     0.1134910000     0.1954360000 
 C        2.9412380000    -1.0066830000     0.2463800000 
 C        4.3845740000    -1.0365660000     0.3055680000 
 C        5.0868100000    -2.1667600000     0.3607500000 
 H        0.6449420000     0.8564140000     0.1092470000 
 H        2.3791000000    -1.9426190000     0.2457250000 
 H        4.8801510000    -0.0705220000     0.3028060000 
 H        4.5990970000    -3.1361480000     0.3639110000 
 H        6.1686200000    -2.1590530000     0.4044060000 
*
