! RI PBE def2-SVP def2-SVP/J NBO PAL2
% maxcore 2000
% output
    # printlevel mini
    print[ P_Basis ] 0
    print[ P_SCFInfo ] 1
    print[ P_SCFIterInfo ] 1
    print[ P_OrbEn ] 0
    print[ P_Cartesian ] 0
end
*xyz 0 1
 S       -0.4675860000    -1.4266690000    -0.0038040000 
 C       -1.2666430000     0.0794140000    -0.0017030000 
 C       -0.3784360000     1.1142020000     0.0003930000 
 C        0.9677500000     0.6718510000     0.0002860000 
 C        1.0690590000    -0.6880880000    -0.0018890000 
 H       -2.3449610000     0.1245240000    -0.0021230000 
 H       -0.6760050000     2.1544780000     0.0019580000 
 H        1.8243580000     1.3328690000     0.0017580000 
 H        1.9639640000    -1.2913720000    -0.0024650000 
*
