! RI PBE def2-SVP def2-SVP/J NBO PAL2
% maxcore 2000
% output
    # printlevel mini
    print[ P_Basis ] 0
    print[ P_SCFInfo ] 1
    print[ P_SCFIterInfo ] 1
    print[ P_OrbEn ] 0
    print[ P_Cartesian ] 0
end
*xyz 0 1
 S       -0.4696340000    -1.4406630000    -0.0032000000 
 C       -1.2695060000     0.0652430000    -0.0015150000 
 C       -0.3477450000     1.0668130000    -0.0002010000 
 N        0.9570550000     0.6725260000    -0.0004930000 
 C        1.0368670000    -0.6212250000    -0.0020130000 
 H       -2.3456290000     0.1380140000    -0.0015740000 
 H       -0.5843440000     2.1226190000     0.0010210000 
 H        1.9695260000    -1.1698370000    -0.0025350000 
*
