! RI PBE def2-SVP def2-SVP/J NBO PAL2
% maxcore 2000
% output
    # printlevel mini
    print[ P_Basis ] 0
    print[ P_SCFInfo ] 1
    print[ P_SCFIterInfo ] 1
    print[ P_OrbEn ] 0
    print[ P_Cartesian ] 0
end
*xyz 0 1
 C        0.9958620000    -0.1763800000     0.0102210000 
 C        2.5048310000    -0.1840730000     0.0624310000 
 C        3.2360100000     1.0520420000     0.6280160000 
 C        4.2233340000     0.1110150000     1.3548420000 
 C        5.5375160000    -0.0862720000     0.6269550000 
 C        3.2075830000    -1.0342520000     1.1421650000 
 H        0.6018180000    -1.1533520000    -0.2846770000 
 H        0.5744730000     0.0706980000     0.9895070000 
 H        0.6251830000     0.5615130000    -0.7072900000 
 H        2.9047570000    -0.4329290000    -0.9252560000 
 H        2.6011810000     1.5984300000     1.3311690000 
 H        3.6586930000     1.7646890000    -0.0846930000 
 H        4.4197270000     0.3657850000     2.3994970000 
 H        6.1445090000     0.8230320000     0.6555650000 
 H        6.1211220000    -0.8934500000     1.0785770000 
 H        5.3759050000    -0.3431600000    -0.4243680000 
 H        2.5633930000    -1.1749130000     2.0146360000 
 H        3.6073030000    -2.0070250000     0.8448130000 
*
