! RI PBE def2-SVP def2-SVP/J NBO PAL2
% maxcore 2000
% output
    # printlevel mini
    print[ P_Basis ] 0
    print[ P_SCFInfo ] 1
    print[ P_SCFIterInfo ] 1
    print[ P_OrbEn ] 0
    print[ P_Cartesian ] 0
end
*xyz 0 1
 C        1.0135160000    -0.2586560000    -0.4246220000 
 C        2.2508480000     0.5998550000    -0.2080670000 
 C        2.9298300000     0.9858920000    -1.4947910000 
 C        4.3793310000     1.3699700000    -1.5231280000 
 C        3.9308000000     0.1022360000    -2.1898660000 
 C        4.3497040000    -1.2389380000    -1.6556310000 
 H        1.2676140000    -1.1971140000    -0.9236950000 
 H        0.2821360000     0.2590700000    -1.0515640000 
 H        0.5249380000    -0.5028320000     0.5217750000 
 H        2.9559990000     0.0752820000     0.4438260000 
 H        1.9738690000     1.5131650000     0.3310510000 
 H        2.2881370000     1.5518080000    -2.1657530000 
 H        4.9314800000     1.2658230000    -0.5945810000 
 H        4.6926460000     2.2069890000    -2.1352400000 
 H        3.8896640000     0.1451260000    -3.2743470000 
 H        3.6659540000    -2.0300510000    -1.9763220000 
 H        4.3829690000    -1.2501790000    -0.5646570000 
 H        5.3494460000    -1.5009460000    -2.0131880000 
*
