! RI PBE def2-SVP def2-SVP/J NBO PAL2
% maxcore 2000
% output
    # printlevel mini
    print[ P_Basis ] 0
    print[ P_SCFInfo ] 1
    print[ P_SCFIterInfo ] 1
    print[ P_OrbEn ] 0
    print[ P_Cartesian ] 0
end
*xyz 0 1
 C        1.2272520000     0.4333700000    -0.4236480000 
 C        2.2684850000     0.0134180000     0.6034350000 
 C        3.1838470000     1.1535980000     1.0469030000 
 C        4.3977870000     1.4237910000     0.1819570000 
 C        5.4014820000     0.3530990000    -0.1174510000 
 C        4.5595130000     0.9183800000    -1.2206110000 
 H        1.6857380000     0.8794540000    -1.3087230000 
 H        0.5490580000     1.1792370000     0.0004640000 
 H        0.6225610000    -0.4159080000    -0.7513670000 
 H        2.8644770000    -0.8202580000     0.2149160000 
 H        1.7519450000    -0.3851150000     1.4819920000 
 H        3.5386040000     0.9612770000     2.0657190000 
 H        2.5849940000     2.0699640000     1.1077670000 
 H        4.8327550000     2.4032340000     0.3569990000 
 H        5.1765860000    -0.6553310000     0.2117800000 
 H        6.4537330000     0.6071960000    -0.0832770000 
 H        3.7893440000     0.2776040000    -1.6307930000 
 H        5.0295390000     1.5682110000    -1.9486420000 
*
