! RI PBE def2-SVP def2-SVP/J NBO PAL2
% maxcore 2000
% output
    # printlevel mini
    print[ P_Basis ] 0
    print[ P_SCFInfo ] 1
    print[ P_SCFIterInfo ] 1
    print[ P_OrbEn ] 0
    print[ P_Cartesian ] 0
end
*xyz 0 1
 C        0.5062040000    -0.0409110000    -0.0605780000 
 C        1.9644350000    -0.4394400000     0.0925440000 
 C        2.8947200000     0.3287630000    -0.8331800000 
 C        4.3568320000    -0.0618930000    -0.6885850000 
 C        5.2871140000     0.7062900000    -1.6143290000 
 C        6.7453450000     0.3077690000    -1.4612000000 
 H       -0.1391910000    -0.6071910000     0.6149940000 
 H        0.1545680000    -0.2172050000    -1.0811190000 
 H        0.3631440000     1.0214800000     0.1564330000 
 H        2.0737980000    -1.5135160000    -0.0975490000 
 H        2.2808000000    -0.2842170000     1.1305970000 
 H        2.7857960000     1.4042780000    -0.6439090000 
 H        2.5786860000     0.1742850000    -1.8727370000 
 H        4.4657510000    -1.1374110000    -0.8778380000 
 H        4.6728740000     0.0926030000     0.3509670000 
 H        5.1777480000     1.7803710000    -1.4242660000 
 H        4.9707470000     0.5510390000    -2.6523780000 
 H        7.0969930000     0.4841150000    -0.4406710000 
 H        7.3907350000     0.8740130000    -2.1368080000 
 H        6.8884020000    -0.7546320000    -1.6781590000 
*
