! RI PBE def2-SVP def2-SVP/J NBO PAL2
% maxcore 2000
% output
    # printlevel mini
    print[ P_Basis ] 0
    print[ P_SCFInfo ] 1
    print[ P_SCFIterInfo ] 1
    print[ P_OrbEn ] 0
    print[ P_Cartesian ] 0
end
*xyz 0 1
 C        1.6351900000     0.3103770000    -0.5537460000 
 C        2.6627430000     0.5129550000     0.5536380000 
 C        3.9538900000     1.0829770000    -0.0197290000 
 C        2.9170780000    -0.7473910000     1.4025040000 
 C        3.4123560000    -1.9417060000     0.5953420000 
 C        1.6955350000    -1.1347450000     2.2262290000 
 H        0.6871300000    -0.0765310000    -0.1737750000 
 H        2.0009600000    -0.3844090000    -1.3148850000 
 H        1.4240090000     1.2581530000    -1.0556920000 
 H        2.2558370000     1.2628400000     1.2453520000 
 H        3.7708370000     2.0400910000    -0.5150750000 
 H        4.6992110000     1.2488460000     0.7630520000 
 H        4.3930040000     0.4124120000    -0.7635540000 
 H        3.7128520000    -0.4767380000     2.1095110000 
 H        2.6436720000    -2.3043200000    -0.0927610000 
 H        4.3031070000    -1.7051990000     0.0092360000 
 H        3.6687420000    -2.7708490000     1.2598840000 
 H        1.3340020000    -0.2934090000     2.8238980000 
 H        1.9311270000    -1.9539770000     2.9105530000 
 H        0.8726370000    -1.4713760000     1.5896190000 
*
