! RI PBE def2-SVP def2-SVP/J NBO PAL2
% maxcore 2000
% output
    # printlevel mini
    print[ P_Basis ] 0
    print[ P_SCFInfo ] 1
    print[ P_SCFIterInfo ] 1
    print[ P_OrbEn ] 0
    print[ P_Cartesian ] 0
end
*xyz 0 1
 C        0.7741740000    -0.5917070000    -0.1300340000 
 C        2.1069170000     0.0125120000    -0.5427550000 
 C        2.9406600000    -0.8385000000    -1.5020360000 
 C        4.3361380000    -0.2442690000    -1.6423520000 
 C        2.2562470000    -1.0047190000    -2.8585220000 
 C        2.9470820000    -1.9739580000    -3.8050750000 
 H        0.2773010000     0.0331950000     0.6159130000 
 H        0.9121120000    -1.5836710000     0.3103180000 
 H        0.0869600000    -0.6963790000    -0.9723200000 
 H        2.7035160000     0.1966800000     0.3577680000 
 H        1.9416910000     0.9973530000    -0.9983740000 
 H        3.0408310000    -1.8389130000    -1.0554750000 
 H        4.2878720000     0.7502620000    -2.0984600000 
 H        4.8156950000    -0.1370430000    -0.6659200000 
 H        4.9878820000    -0.8629610000    -2.2621510000 
 H        2.1781030000    -0.0179140000    -3.3331560000 
 H        1.2292480000    -1.3469770000    -2.7008260000 
 H        3.9431110000    -1.6304870000    -4.0922080000 
 H        2.3700840000    -2.1015260000    -4.7240760000 
 H        3.0565570000    -2.9607680000    -3.3453700000 
*
