! RI PBE def2-SVP def2-SVP/J NBO PAL2
% maxcore 2000
% output
    # printlevel mini
    print[ P_Basis ] 0
    print[ P_SCFInfo ] 1
    print[ P_SCFIterInfo ] 1
    print[ P_OrbEn ] 0
    print[ P_Cartesian ] 0
end
*xyz 0 1
 C       -1.2740050000     0.1924740000    -0.3310250000 
 C       -0.4012750000    -0.4936250000     0.7592210000 
 C       -0.4305530000     0.8862520000     1.4776290000 
 C       -0.3422220000     1.3914150000     0.0086030000 
 C        1.0086840000     0.8108680000    -0.3986910000 
 C        0.9699500000    -0.4255650000     0.0936540000 
 H       -2.3092830000     0.3503260000    -0.0160550000 
 H       -1.2242610000    -0.2122200000    -1.3434250000 
 H       -0.6996730000    -1.4172100000     1.2526540000 
 H        0.4013900000     1.1249540000     2.1425340000 
 H       -1.3925120000     1.1044130000     1.9498210000 
 H       -0.5795940000     2.4158680000    -0.2736690000 
 H        1.7875530000     1.3131450000    -0.9545780000 
 H        1.7084010000    -1.2135030000     0.0515270000 
*
