! RI PBE def2-SVP def2-SVP/J NBO PAL2
% maxcore 2000
% output
    # printlevel mini
    print[ P_Basis ] 0
    print[ P_SCFInfo ] 1
    print[ P_SCFIterInfo ] 1
    print[ P_OrbEn ] 0
    print[ P_Cartesian ] 0
end
*xyz 0 1
 C        0.3647410000     1.4186780000     0.5061510000 
 C        0.8953960000     0.4128120000    -0.4650430000 
 C        0.9772660000    -1.0377240000    -0.0242870000 
 C       -0.4511150000    -1.3944740000     0.2859090000 
 C       -1.2890580000    -0.4040350000    -0.0130760000 
 C       -0.5676060000     0.7970630000    -0.4999790000 
 H        0.6559860000     2.4509060000     0.3501900000 
 H        0.2395520000     1.1285210000     1.5437160000 
 H        1.5716510000     0.7663380000    -1.2330250000 
 H        1.6341270000    -1.1738520000     0.8425950000 
 H        1.3790330000    -1.6757540000    -0.8204070000 
 H       -0.7393320000    -2.3445370000     0.7202740000 
 H       -2.3647710000    -0.4365110000     0.1141850000 
 H       -0.9905800000     1.4165410000    -1.2819130000 
*
