! RI PBE def2-SVP def2-SVP/J NBO PAL2
% maxcore 2000
% output
    # printlevel mini
    print[ P_Basis ] 0
    print[ P_SCFInfo ] 1
    print[ P_SCFIterInfo ] 1
    print[ P_OrbEn ] 0
    print[ P_Cartesian ] 0
end
*xyz 0 1
 C       -0.7561030000     1.1630960000    -0.0016180000 
 C        0.6294890000     1.2383410000    -0.0006410000 
 C        1.3875770000     0.0760390000     0.0009720000 
 C        0.7601520000    -1.1616620000     0.0016100000 
 C       -0.6254390000    -1.2369060000     0.0006450000 
 C       -1.3835270000    -0.0746030000    -0.0009680000 
 H       -1.3484730000     2.0713090000    -0.0028840000 
 H        1.1199820000     2.2053680000    -0.0011420000 
 H        2.4702980000     0.1349400000     0.0017340000 
 H        1.3525240000    -2.0698740000     0.0028680000 
 H       -1.1159320000    -2.2039330000     0.0011500000 
 H       -2.4662480000    -0.1335050000    -0.0017250000 
*
