! RI PBE def2-SVP def2-SVP/J NBO PAL2
% maxcore 2000
% output
    # printlevel mini
    print[ P_Basis ] 0
    print[ P_SCFInfo ] 1
    print[ P_SCFIterInfo ] 1
    print[ P_OrbEn ] 0
    print[ P_Cartesian ] 0
end
*xyz 0 1
 C        1.1208170000    -0.0218040000     0.1505570000 
 C        2.5962440000     0.0810110000    -0.1040640000 
 C        3.1998740000    -0.4900150000    -1.3490220000 
 C        3.1277610000     0.9968470000    -1.1808840000 
 C        4.3228630000     1.8272930000    -0.9354160000 
 C        5.5879140000     1.4513580000    -1.0744830000 
 H        0.8647560000    -0.9804570000     0.6107760000 
 H        0.5578380000     0.0568070000    -0.7835730000 
 H        0.7732020000     0.7722520000     0.8172100000 
 H        3.2252970000     0.0208110000     0.7790790000 
 H        2.5309820000    -0.9439910000    -2.0709780000 
 H        4.1676670000    -0.9697130000    -1.2756450000 
 H        2.3505060000     1.4973730000    -1.7534010000 
 H        4.1168670000     2.8408110000    -0.5943210000 
 H        5.8570940000     0.4617040000    -1.4277310000 
 H        6.4025100000     2.1270120000    -0.8420130000 
*
