! RI PBE def2-SVP def2-SVP/J NBO PAL2
% maxcore 2000
% output
    # printlevel mini
    print[ P_Basis ] 0
    print[ P_SCFInfo ] 1
    print[ P_SCFIterInfo ] 1
    print[ P_OrbEn ] 0
    print[ P_Cartesian ] 0
end
*xyz 0 1
 C        1.0452800000     0.0824830000     0.0270140000 
 C        2.5451330000     0.0423420000     0.0579030000 
 C        3.3069750000    -0.7456470000    -0.9514550000 
 C        3.3313670000     0.7650890000    -1.0112760000 
 C        4.5259270000     1.4759120000    -0.6748190000 
 C        5.5298370000     2.0719910000    -0.3882910000 
 H        0.6197080000    -0.7749040000     0.5555040000 
 H        0.6750050000     0.0547660000    -1.0012680000 
 H        0.6618610000     0.9917500000     0.4968510000 
 H        2.9920530000     0.0898180000     1.0453380000 
 H        2.7479540000    -1.2553610000    -1.7274760000 
 H        4.2204660000    -1.2384060000    -0.6453450000 
 H        2.7405340000     1.2176050000    -1.8018100000 
 H        6.4182020000     2.6000610000    -0.1357790000 
*
