! RI PBE def2-SVP def2-SVP/J NBO PAL2
% maxcore 2000
% output
    # printlevel mini
    print[ P_Basis ] 0
    print[ P_SCFInfo ] 1
    print[ P_SCFIterInfo ] 1
    print[ P_OrbEn ] 0
    print[ P_Cartesian ] 0
end
*xyz 0 1
 C        1.0869900000    -0.1032910000     0.3217970000 
 C        2.3567490000    -0.0776020000    -0.0603220000 
 C        3.2231360000     1.1570840000    -0.1723290000 
 C        4.4607030000     0.6923330000    -0.9409070000 
 C        4.6241040000    -0.7589860000    -0.4960430000 
 C        3.1862080000    -1.2779840000    -0.4587390000 
 H        0.5517430000     0.8058080000     0.5747110000 
 H        0.5351960000    -1.0343820000     0.3960200000 
 H        3.5144740000     1.4840470000     0.8330460000 
 H        2.7021870000     1.9945350000    -0.6408630000 
 H        5.3422710000     1.3065910000    -0.7475920000 
 H        4.2661540000     0.7269340000    -2.0181350000 
 H        5.0580870000    -0.7887230000     0.5090630000 
 H        5.2744970000    -1.3422010000    -1.1507910000 
 H        3.0420720000    -2.1287390000     0.2103510000 
 H        2.8860190000    -1.6054250000    -1.4613460000 
*
