! RI PBE def2-SVP def2-SVP/J NBO PAL2
% maxcore 2000
% output
    # printlevel mini
    print[ P_Basis ] 0
    print[ P_SCFInfo ] 1
    print[ P_SCFIterInfo ] 1
    print[ P_OrbEn ] 0
    print[ P_Cartesian ] 0
end
*xyz 0 1
 C        0.9417630000    -0.0297760000    -0.0842220000 
 C        2.2780300000    -0.0297680000    -0.0877070000 
 C        3.1567640000     1.1427460000    -0.0897420000 
 C        4.4292640000     0.7036380000    -0.0933490000 
 C        4.4292710000    -0.7631520000    -0.0935490000 
 C        3.1567760000    -1.2022730000    -0.0900580000 
 H        0.3774260000     0.8961850000    -0.0825830000 
 H        0.3774370000    -0.9557440000    -0.0828330000 
 H        2.8122970000     2.1670860000    -0.0886260000 
 H        5.3199250000     1.3177430000    -0.0957180000 
 H        5.3199390000    -1.3772480000    -0.0960840000 
 H        2.8123170000    -2.2266170000    -0.0892180000 
*
