! RI PBE def2-SVP def2-SVP/J NBO PAL2
% maxcore 2000
% output
    # printlevel mini
    print[ P_Basis ] 0
    print[ P_SCFInfo ] 1
    print[ P_SCFIterInfo ] 1
    print[ P_OrbEn ] 0
    print[ P_Cartesian ] 0
end
*xyz 0 1
 C        1.1055280000     0.0650290000     0.1774510000 
 C        2.4031800000     0.0648260000    -0.0920830000 
 C        3.2682130000    -1.1675720000    -0.2717120000 
 C        4.6262680000    -0.5994480000    -0.5544880000 
 C        4.6264420000     0.7284050000    -0.5546500000 
 C        3.2685350000     1.2969540000    -0.2720140000 
 H        0.5496050000    -0.8592200000     0.2930070000 
 H        0.5498470000     0.9894520000     0.2927810000 
 H        2.9079130000    -1.8000910000    -1.0916570000 
 H        3.2650550000    -1.7995000000     0.6243220000 
 H        5.4965070000    -1.2194130000    -0.7355540000 
 H        5.4968430000     1.3480990000    -0.7358680000 
 H        2.9084010000     1.9293670000    -1.0921130000 
 H        3.2655430000     1.9291020000     0.6238660000 
*
