! RI PBE def2-SVP def2-SVP/J NBO PAL2
% maxcore 2000
% output
    # printlevel mini
    print[ P_Basis ] 0
    print[ P_SCFInfo ] 1
    print[ P_SCFIterInfo ] 1
    print[ P_OrbEn ] 0
    print[ P_Cartesian ] 0
end
*xyz 0 1
 C        0.9943060000    -0.0126170000     0.1101830000 
 C        2.4796950000    -0.0491940000     0.0540500000 
 C        3.2619820000    -1.1240910000    -0.0186180000 
 C        4.7211350000    -0.7779670000     0.0056890000 
 C        4.7170650000     0.7397780000    -0.2431620000 
 C        3.3054440000     1.2077220000     0.1374930000 
 H        0.5631920000    -1.0138850000     0.0619260000 
 H        0.5838240000     0.5779460000    -0.7158610000 
 H        0.6491320000     0.4642160000     1.0342190000 
 H        2.8969750000    -2.1456210000    -0.0452800000 
 H        5.3049230000    -1.3215740000    -0.7431290000 
 H        5.1608900000    -1.0304850000     0.9797960000 
 H        4.8828220000     0.9282620000    -1.3070260000 
 H        5.5031230000     1.2637220000     0.3035570000 
 H        2.9317110000     2.0002920000    -0.5190250000 
 H        3.2659810000     1.6123960000     1.1581880000 
*
