! RI PBE def2-SVP def2-SVP/J NBO PAL2
% maxcore 2000
% output
    # printlevel mini
    print[ P_Basis ] 0
    print[ P_SCFInfo ] 1
    print[ P_SCFIterInfo ] 1
    print[ P_OrbEn ] 0
    print[ P_Cartesian ] 0
end
*xyz 0 1
 C        1.0305900000     0.1119990000     0.0181450000 
 C        2.5162440000     0.0977680000     0.0198560000 
 C        3.3595490000     1.1458390000     0.0232090000 
 C        4.7390140000     0.6701000000     0.0237580000 
 C        4.7455540000    -0.6712690000     0.0207410000 
 C        3.3338200000    -1.1593680000     0.0179850000 
 H        0.6461540000     1.1332720000     0.0199820000 
 H        0.6226710000    -0.4028010000     0.8946230000 
 H        0.6247320000    -0.3988660000    -0.8615860000 
 H        3.0660480000     2.1887610000     0.0252150000 
 H        5.6110810000     1.3117880000     0.0262280000 
 H        5.6128730000    -1.3169880000     0.0203040000 
 H        3.1130660000    -1.7860350000     0.8921790000 
 H        3.1151230000    -1.7820880000    -0.8595390000 
*
