! RI PBE def2-SVP def2-SVP/J NBO PAL2
% maxcore 2000
% output
    # printlevel mini
    print[ P_Basis ] 0
    print[ P_SCFInfo ] 1
    print[ P_SCFIterInfo ] 1
    print[ P_OrbEn ] 0
    print[ P_Cartesian ] 0
end
*xyz 0 1
 C        1.0396310000     0.1032540000     0.0442650000 
 C        2.5265310000     0.0415750000     0.0460970000 
 C        3.3090430000    -1.0521040000     0.0477310000 
 C        4.7452390000    -0.6472300000     0.0492040000 
 C        4.6792630000     0.8441970000     0.0481880000 
 C        3.3937240000     1.2240410000     0.0463970000 
 H        0.6002320000    -0.8951510000     0.0443780000 
 H        0.6683900000     0.6389120000    -0.8351120000 
 H        0.6662710000     0.6400440000     0.9220530000 
 H        2.9688980000    -2.0796060000     0.0479690000 
 H        5.2859960000    -1.0321860000    -0.8257150000 
 H        5.2838880000    -1.0310850000     0.9259050000 
 H        5.5463170000     1.4907230000     0.0488270000 
 H        3.0297750000     2.2448160000     0.0453140000 
*
