! RI PBE def2-SVP def2-SVP/J NBO PAL2
% maxcore 2000
% output
    # printlevel mini
    print[ P_Basis ] 0
    print[ P_SCFInfo ] 1
    print[ P_SCFIterInfo ] 1
    print[ P_OrbEn ] 0
    print[ P_Cartesian ] 0
end
*xyz 0 1
 C        0.9919940000    -0.0679030000    -0.1030700000 
 C        2.5159650000    -0.1080120000    -0.0142010000 
 C        3.0608840000    -1.3924290000     0.6471520000 
 C        3.4194670000    -1.0108350000     2.0940950000 
 C        3.5188150000     0.4849570000     2.0344510000 
 C        3.0471690000     0.9695000000     0.8919340000 
 H        0.6172810000    -0.8535720000    -0.7645780000 
 H        0.6418090000     0.8922250000    -0.4913440000 
 H        0.5429140000    -0.2101300000     0.8839460000 
 H        2.9165270000     0.0004710000    -1.0286190000 
 H        3.9657970000    -1.7128680000     0.1254500000 
 H        2.3476420000    -2.2178440000     0.5914550000 
 H        4.3477530000    -1.4831420000     2.4288240000 
 H        2.6472530000    -1.3162610000     2.8112850000 
 H        3.9000180000     1.0844930000     2.8536290000 
 H        2.9846220000     2.0233610000     0.6421700000 
*
