! RI PBE def2-SVP def2-SVP/J NBO PAL2
% maxcore 2000
% output
    # printlevel mini
    print[ P_Basis ] 0
    print[ P_SCFInfo ] 1
    print[ P_SCFIterInfo ] 1
    print[ P_OrbEn ] 0
    print[ P_Cartesian ] 0
end
*xyz 0 1
 C        1.9922130000     1.1981110000    -0.0538060000 
 C        2.6759340000     0.1068570000     0.2658780000 
 C        3.2845090000    -0.8398090000    -0.6985950000 
 C        4.7806100000    -1.2109990000    -0.5451490000 
 C        4.4294350000    -2.6515040000    -0.9565490000 
 C        2.9712390000    -2.3512340000    -0.5677580000 
 H        1.5720090000     1.8499470000     0.7034810000 
 H        1.8284870000     1.4784500000    -1.0900930000 
 H        2.8172950000    -0.1382380000     1.3188540000 
 H        3.0884500000    -0.5084310000    -1.7231610000 
 H        5.0837230000    -1.1593880000     0.5041610000 
 H        5.5029440000    -0.6547150000    -1.1446950000 
 H        4.9385330000    -3.4694610000    -0.4451720000 
 H        4.5339820000    -2.7961010000    -2.0341860000 
 H        2.7750590000    -2.6142770000     0.4752660000 
 H        2.1686860000    -2.7559070000    -1.1864860000 
*
