! RI PBE def2-SVP def2-SVP/J NBO PAL2
% maxcore 2000
% output
    # printlevel mini
    print[ P_Basis ] 0
    print[ P_SCFInfo ] 1
    print[ P_SCFIterInfo ] 1
    print[ P_OrbEn ] 0
    print[ P_Cartesian ] 0
end
*xyz 0 1
 C        1.1574440000    -0.9839330000     0.0729950000 
 C        2.4071030000    -0.5251770000    -0.0169080000 
 C        3.1406480000    -0.4301020000    -1.2542620000 
 C        4.3991400000     0.0331180000    -1.3364910000 
 C        5.1309980000     0.1325910000    -2.5397010000 
 C        5.7825540000     0.2303980000    -3.5479710000 
 H        0.6400890000    -1.0396790000     1.0226290000 
 H        0.6157190000    -1.3178080000    -0.8060290000 
 H        2.9237270000    -0.1977430000     0.8828260000 
 H        2.6365360000    -0.7538600000    -2.1611260000 
 H        4.9073300000     0.3581930000    -0.4311960000 
 H        6.3509240000     0.3133120000    -4.4437660000 
*
