! RI PBE def2-SVP def2-SVP/J NBO PAL2
% maxcore 2000
% output
    # printlevel mini
    print[ P_Basis ] 0
    print[ P_SCFInfo ] 1
    print[ P_SCFIterInfo ] 1
    print[ P_OrbEn ] 0
    print[ P_Cartesian ] 0
end
*xyz 0 1
 C        2.6182280000    -1.1792630000     0.1858950000 
 C        2.0856220000     0.0170300000     0.4268510000 
 C        2.8075600000     1.1919690000     0.9128660000 
 C        2.1357560000     2.3081130000     1.2249290000 
 C        4.2733260000     1.1271600000     1.0206680000 
 C        4.9824250000     1.6146600000     2.0324470000 
 H        2.0089610000    -1.9997680000    -0.1730450000 
 H        3.6706640000    -1.3838410000     0.3469760000 
 H        1.0200960000     0.1620210000     0.2653660000 
 H        1.0543360000     2.3468720000     1.1540780000 
 H        2.6497050000     3.2062440000     1.5443410000 
 H        4.7920600000     0.6329870000     0.2022490000 
 H        4.5033590000     2.0736810000     2.8907580000 
 H        6.0646900000     1.5590440000     2.0390220000 
*
