! RI PBE def2-SVP def2-SVP/J NBO PAL2
% maxcore 2000
% output
    # printlevel mini
    print[ P_Basis ] 0
    print[ P_SCFInfo ] 1
    print[ P_SCFIterInfo ] 1
    print[ P_OrbEn ] 0
    print[ P_Cartesian ] 0
end
*xyz 0 1
 C        0.9415380000    -0.2189150000     0.2638220000 
 C        2.1270950000     0.2291130000    -0.1544670000 
 C        2.8083000000     1.3339250000     0.4045140000 
 C        3.4262890000     2.2729320000     0.8519150000 
 C        4.1075430000     3.3777870000     1.4107460000 
 C        5.2924200000     3.8266580000     0.9914410000 
 H        0.4740030000    -1.0729770000    -0.2101040000 
 H        0.4150880000     0.2545650000     1.0837970000 
 H        2.6260680000    -0.2718990000    -0.9807160000 
 H        3.6091620000     3.8781190000     2.2377630000 
 H        5.8182350000     3.3539250000     0.1706280000 
 H        5.7599570000     4.6807780000     1.4652610000 
*
