! RI PBE def2-SVP def2-SVP/J NBO PAL2
% maxcore 2000
% output
    # printlevel mini
    print[ P_Basis ] 0
    print[ P_SCFInfo ] 1
    print[ P_SCFIterInfo ] 1
    print[ P_OrbEn ] 0
    print[ P_Cartesian ] 0
end
*xyz 0 1
 C        1.0347660000     0.0719000000    -0.0473000000 
 C        2.2417710000     0.0719000000    -0.0473000000 
 C        3.5969780000     0.0719000000    -0.0473000000 
 C        4.8114440000     0.0719000000    -0.0473000000 
 C        6.1666520000     0.0719000000    -0.0473000000 
 C        7.3736570000     0.0719000000    -0.0473000000 
 H       -0.0296840000     0.0719000000    -0.0473000000 
 H        8.4381070000     0.0719000000    -0.0473000000 
*
