! RI PBE def2-SVP def2-SVP/J NBO PAL2
% maxcore 2000
% output
    # printlevel mini
    print[ P_Basis ] 0
    print[ P_SCFInfo ] 1
    print[ P_SCFIterInfo ] 1
    print[ P_OrbEn ] 0
    print[ P_Cartesian ] 0
end
*xyz 0 1
 C        0.8639050000    -0.0141350000    -0.3170610000 
 C        2.3351630000     0.0341510000    -0.1033940000 
 C        3.0210640000     0.6412720000     0.8775140000 
 C        2.3931850000     1.4193630000     1.9903520000 
 C        4.4770010000     0.5400240000     0.8643200000 
 C        5.3124040000     1.0768270000     1.7536250000 
 H        0.5101550000    -1.0506310000    -0.3266630000 
 H        0.6026520000     0.4078780000    -1.2933900000 
 H        0.2987420000     0.5250670000     0.4423680000 
 H        2.9238340000    -0.4979310000    -0.8491630000 
 H        1.3072350000     1.4437530000     1.9226660000 
 H        2.7540240000     2.4522510000     1.9903710000 
 H        2.6607400000     0.9897360000     2.9603520000 
 H        4.8937590000    -0.0338460000     0.0390790000 
 H        4.9627530000     1.6593350000     2.5983260000 
 H        6.3836830000     0.9469880000     1.6604990000 
*
