! RI PBE def2-SVP def2-SVP/J NBO PAL2
% maxcore 2000
% output
    # printlevel mini
    print[ P_Basis ] 0
    print[ P_SCFInfo ] 1
    print[ P_SCFIterInfo ] 1
    print[ P_OrbEn ] 0
    print[ P_Cartesian ] 0
end
*xyz 0 1
 C        1.0471650000    -0.1820970000    -0.1690010000 
 C        2.5348180000    -0.0763360000    -0.0646500000 
 C        3.2033400000     0.7504580000     0.7511080000 
 C        2.5476110000     1.7112200000     1.6990460000 
 C        4.6284650000     0.7509310000     0.7515750000 
 C        5.8313030000     0.7867730000     0.7869400000 
 H        0.7623990000    -0.9311080000    -0.9080150000 
 H        0.5904800000     0.7658980000    -0.4695900000 
 H        0.5904790000    -0.4699230000     0.7829470000 
 H        3.1243540000    -0.7250760000    -0.7047320000 
 H        1.4609590000     1.6550050000     1.6435810000 
 H        2.8542530000     2.7370600000     1.4774140000 
 H        2.8542530000     1.5033920000     2.7277710000 
 H        6.8949420000     0.8071330000     0.8070280000 
*
