! RI PBE def2-SVP def2-SVP/J NBO PAL2
% maxcore 2000
% output
    # printlevel mini
    print[ P_Basis ] 0
    print[ P_SCFInfo ] 1
    print[ P_SCFIterInfo ] 1
    print[ P_OrbEn ] 0
    print[ P_Cartesian ] 0
end
*xyz 0 1
 C        0.9128990000    -0.2198330000    -0.5223810000 
 C        2.3955560000    -0.3017350000    -0.6551760000 
 C        3.2069100000    -0.9293170000     0.1873260000 
 C        4.6964290000    -1.0167790000     0.0620020000 
 C        5.3816320000    -0.3609490000     1.2586480000 
 C        5.1448750000    -2.4690770000    -0.0839940000 
 H        0.5775850000     0.8202570000    -0.4557440000 
 H        0.5632750000    -0.7471760000     0.3675250000 
 H        0.4121350000    -0.6535000000    -1.3940650000 
 H        2.8325880000     0.1992580000    -1.5189990000 
 H        2.7757590000    -1.4332940000     1.0548100000 
 H        4.9895900000    -0.4727480000    -0.8438970000 
 H        5.1007180000    -0.8645010000     2.1889300000 
 H        5.1002760000     0.6902540000     1.3497440000 
 H        6.4696010000    -0.4185360000     1.1659870000 
 H        4.8548620000    -3.0535570000     0.7947420000 
 H        6.2319610000    -2.5345380000    -0.1816580000 
 H        4.6928570000    -2.9375290000    -0.9607600000 
*
