! RI PBE def2-SVP def2-SVP/J NBO PAL2
% maxcore 2000
% output
    # printlevel mini
    print[ P_Basis ] 0
    print[ P_SCFInfo ] 1
    print[ P_SCFIterInfo ] 1
    print[ P_OrbEn ] 0
    print[ P_Cartesian ] 0
end
*xyz 0 1
 C        0.9757680000     0.0644410000     0.0075750000 
 C        2.4622380000     0.0591010000     0.0074210000 
 C        3.2189820000     0.4264930000     1.0450110000 
 C        4.6362410000     0.4236500000     1.0508150000 
 C        5.8413750000     0.4348370000     1.0938410000 
 C        7.2900730000     0.4438800000     1.1335110000 
 H        0.5850150000     0.7157560000    -0.7812480000 
 H        0.5751460000     0.4065960000     0.9636400000 
 H        0.5791380000    -0.9364610000    -0.1924360000 
 H        2.9570230000    -0.2676720000    -0.9039580000 
 H        2.7334620000     0.7554100000     1.9625040000 
 H        7.7015420000     1.0753850000     0.3413790000 
 H        7.6938250000    -0.5635350000     1.0001910000 
 H        7.6538220000     0.8266800000     2.0904130000 
*
