! RI PBE def2-SVP def2-SVP/J NBO PAL2
% maxcore 2000
% output
    # printlevel mini
    print[ P_Basis ] 0
    print[ P_SCFInfo ] 1
    print[ P_SCFIterInfo ] 1
    print[ P_OrbEn ] 0
    print[ P_Cartesian ] 0
end
*xyz 0 1
 C        0.6736200000     0.2411030000     0.0421900000 
 C        2.1562300000     0.3612630000     0.1320510000 
 C        3.0125000000    -0.0192760000    -0.8084150000 
 C        4.5026570000     0.1083780000    -0.7172110000 
 C        5.0629220000     0.9918710000    -1.7895820000 
 C        5.9300650000     0.6078080000    -2.7156140000 
 H        0.2775430000    -0.3808780000     0.8514220000 
 H        0.3661020000    -0.2000560000    -0.9079390000 
 H        0.1914030000     1.2195190000     0.1358880000 
 H        2.5528430000     0.7942930000     1.0502540000 
 H        2.6273090000    -0.4479980000    -1.7330680000 
 H        4.9692970000    -0.8807010000    -0.7931600000 
 H        4.7648300000     0.5137140000     0.2670810000 
 H        4.7001340000     2.0181300000    -1.7913980000 
 H        6.3087800000    -0.4095190000    -2.7483520000 
 H        6.2961550000     1.2934610000    -3.4710560000 
*
