! RI PBE def2-SVP def2-SVP/J NBO PAL2
% maxcore 2000
% output
    # printlevel mini
    print[ P_Basis ] 0
    print[ P_SCFInfo ] 1
    print[ P_SCFIterInfo ] 1
    print[ P_OrbEn ] 0
    print[ P_Cartesian ] 0
end
*xyz 0 1
 C        0.8522930000    -0.0240540000    -0.0556150000 
 C        2.3396910000    -0.0982520000    -0.0917420000 
 C        3.1110060000    -0.4274780000     0.9351950000 
 C        4.6093040000    -0.5088840000     0.8735550000 
 C        5.2634800000     0.3322860000     1.8667670000 
 C        5.7882160000     1.0253470000     2.6945410000 
 H        0.5033850000     0.9809880000    -0.3130480000 
 H        0.4630070000    -0.2774240000     0.9321440000 
 H        0.4054010000    -0.7071300000    -0.7849020000 
 H        2.8139760000     0.1420980000    -1.0428630000 
 H        2.6606680000    -0.6591560000     1.8980950000 
 H        4.9553450000    -0.2288460000    -0.1264240000 
 H        4.9317440000    -1.5454840000     1.0354810000 
 H        6.2558940000     1.6417880000     3.4250070000 
*
