! RI PBE def2-SVP def2-SVP/J NBO PAL2
% maxcore 2000
% output
    # printlevel mini
    print[ P_Basis ] 0
    print[ P_SCFInfo ] 1
    print[ P_SCFIterInfo ] 1
    print[ P_OrbEn ] 0
    print[ P_Cartesian ] 0
end
*xyz 0 1
 C        1.2126240000    -0.3798830000    -0.3997870000 
 C        2.5742630000     0.0393700000     0.0675390000 
 C        3.1344760000     1.1546090000    -0.4110000000 
 C        3.2670900000    -0.8037960000     1.0571300000 
 C        4.6288740000    -0.3847280000     1.5241970000 
 C        2.7067150000    -1.9188310000     1.5359570000 
 H        0.8198810000     0.3314810000    -1.1265330000 
 H        0.5070580000    -0.4397010000     0.4337120000 
 H        1.2399470000    -1.3669200000    -0.8700330000 
 H        2.6170660000     1.7688270000    -1.1390710000 
 H        4.1148180000     1.4917620000    -0.0995750000 
 H        4.6018260000     0.6025900000     1.9938710000 
 H        5.3344900000    -0.3256010000     0.6906920000 
 H        5.0214080000    -1.0958260000     2.2513160000 
 H        1.7262140000    -2.2557810000     1.2248150000 
 H        3.2241510000    -2.5330820000     2.2639810000 
*
