! RI PBE def2-SVP def2-SVP/J NBO PAL2
% maxcore 2000
% output
    # printlevel mini
    print[ P_Basis ] 0
    print[ P_SCFInfo ] 1
    print[ P_SCFIterInfo ] 1
    print[ P_OrbEn ] 0
    print[ P_Cartesian ] 0
end
*xyz 0 1
 C        0.8731730000    -0.0048480000    -0.2609870000 
 C        2.3466140000    -0.1939400000    -0.4315880000 
 C        2.8683570000    -0.8303410000    -1.4753710000 
 C        3.2192740000     0.3862100000     0.6529000000 
 C        3.1724980000     1.8831940000     0.6961620000 
 C        2.7758550000     2.6054310000     1.7343490000 
 H        0.3141970000    -0.4322770000    -1.0940570000 
 H        0.6226540000     1.0569820000    -0.1787570000 
 H        0.5282740000    -0.4774620000     0.6652010000 
 H        2.2415020000    -1.2431080000    -2.2584860000 
 H        3.9399910000    -0.9627120000    -1.5801110000 
 H        4.2518020000     0.0622230000     0.4854430000 
 H        2.9067920000    -0.0084480000     1.6269110000 
 H        3.4916810000     2.3888280000    -0.2136350000 
 H        2.4469150000     2.1371340000     2.6572990000 
 H        2.7701220000     3.6889350000     1.7032270000 
*
