! RI PBE def2-SVP def2-SVP/J NBO PAL2
% maxcore 2000
% output
    # printlevel mini
    print[ P_Basis ] 0
    print[ P_SCFInfo ] 1
    print[ P_SCFIterInfo ] 1
    print[ P_OrbEn ] 0
    print[ P_Cartesian ] 0
end
*xyz 0 1
 C        1.0890330000     0.0220420000    -0.1876350000 
 C        2.5465740000     0.2261060000     0.0657660000 
 C        3.1024660000     1.4263220000     0.1784810000 
 C        3.3790720000    -1.0266030000     0.2149300000 
 C        3.3374330000    -1.8945760000    -0.9538020000 
 C        3.3003490000    -2.6039470000    -1.9214700000 
 H        0.5636670000     0.9730430000    -0.2778660000 
 H        0.6301110000    -0.5519390000     0.6246740000 
 H        0.9338800000    -0.5533370000    -1.1048720000 
 H        2.5107180000     2.3309560000     0.0926590000 
 H        4.1652280000     1.5463430000     0.3580860000 
 H        3.0171160000    -1.5972460000     1.0804350000 
 H        4.4172820000    -0.7574840000     0.4279090000 
 H        3.2725720000    -3.2337790000    -2.7788050000 
*
