! RI PBE def2-SVP def2-SVP/J NBO PAL2
% maxcore 2000
% output
    # printlevel mini
    print[ P_Basis ] 0
    print[ P_SCFInfo ] 1
    print[ P_SCFIterInfo ] 1
    print[ P_OrbEn ] 0
    print[ P_Cartesian ] 0
end
*xyz 0 1
 C        0.9568860000     0.0503920000    -0.0254020000 
 C        2.4640530000    -0.2136010000    -0.1000610000 
 C        2.8304690000    -1.3913320000     0.7548670000 
 C        3.6387750000    -1.3512840000     1.8037530000 
 C        2.8822620000    -0.4518630000    -1.5215200000 
 C        3.7299830000     0.3029930000    -2.2046650000 
 H        0.6482890000     0.2372400000     1.0053530000 
 H        0.3933810000    -0.8117310000    -0.3940210000 
 H        0.6856240000     0.9144740000    -0.6356310000 
 H        2.9977850000     0.6662990000     0.2752190000 
 H        2.3735900000    -2.3388920000     0.4702410000 
 H        4.1149830000    -0.4271920000     2.1172290000 
 H        3.8566790000    -2.2386290000     2.3867590000 
 H        2.4299180000    -1.3170580000    -2.0057120000 
 H        4.2031380000     1.1715760000    -1.7566960000 
 H        3.9845860000     0.0813170000    -3.2346150000 
*
