! RI PBE def2-SVP def2-SVP/J NBO PAL2
% maxcore 2000
% output
    # printlevel mini
    print[ P_Basis ] 0
    print[ P_SCFInfo ] 1
    print[ P_SCFIterInfo ] 1
    print[ P_OrbEn ] 0
    print[ P_Cartesian ] 0
end
*xyz 0 1
 C        1.0103680000     0.0861060000     0.3294040000 
 C        2.5086970000    -0.0991800000     0.0511440000 
 C        2.7967620000    -1.5095340000    -0.3922080000 
 C        3.3950690000    -1.8744610000    -1.5147290000 
 C        2.9946050000     0.9097390000    -0.8799670000 
 C        3.3751840000     1.7515110000    -1.6467600000 
 H        0.6698790000    -0.6510350000     1.0600850000 
 H        0.4355650000    -0.0459300000    -0.5885720000 
 H        0.8108910000     1.0835370000     0.7235370000 
 H        3.0391830000     0.0541040000     1.0019410000 
 H        2.4538900000    -2.2688700000     0.3076720000 
 H        3.7478020000    -1.1398460000    -2.2305680000 
 H        3.5514530000    -2.9208050000    -1.7488030000 
 H        3.7150320000     2.5001650000    -2.3225660000 
*
