! RI PBE def2-SVP def2-SVP/J NBO PAL2
% maxcore 2000
% output
    # printlevel mini
    print[ P_Basis ] 0
    print[ P_SCFInfo ] 1
    print[ P_SCFIterInfo ] 1
    print[ P_OrbEn ] 0
    print[ P_Cartesian ] 0
end
*xyz 0 1
 C        1.0213660000    -0.0020310000    -0.0138610000 
 C        2.5306170000    -0.0486890000    -0.0180770000 
 C        3.2446590000     1.2763640000     0.1019630000 
 C        3.1999700000    -1.2033060000    -0.1226670000 
 C        2.5229770000    -2.5342770000    -0.2432430000 
 C        4.6958420000    -1.2848790000    -0.1300470000 
 H        0.6614630000     1.0232070000     0.0790120000 
 H        0.5941140000    -0.5701000000     0.8177560000 
 H        0.5941270000    -0.4114070000    -0.9340300000 
 H        2.5330860000     2.0993910000     0.1765210000 
 H        3.8832610000     1.4798520000    -0.7626840000 
 H        3.8832590000     1.3211560000     0.9891020000 
 H        1.4362990000    -2.4664170000    -0.2371000000 
 H        2.8236740000    -3.1963130000     0.5769540000 
 H        2.8236810000    -3.0381420000    -1.1690570000 
 H        5.1801650000    -0.3136920000    -0.0420690000 
 H        5.0524200000    -1.7566220000    -1.0529480000 
 H        5.0524090000    -1.9147850000     0.6930640000 
*
