! RI PBE def2-SVP def2-SVP/J NBO PAL2
% maxcore 2000
% output
    # printlevel mini
    print[ P_Basis ] 0
    print[ P_SCFInfo ] 1
    print[ P_SCFIterInfo ] 1
    print[ P_OrbEn ] 0
    print[ P_Cartesian ] 0
end
*xyz 0 1
 C        1.0447550000     0.0173710000     0.1404800000 
 C        2.5252750000     0.1917880000     0.0247320000 
 C        2.9933080000     1.6097810000     0.0925680000 
 C        3.3301320000    -0.8709900000    -0.1268430000 
 C        4.7712510000    -0.8715140000    -0.2525190000 
 C        5.5022040000    -1.9779100000    -0.4009770000 
 H        0.5244070000     0.5618350000    -0.6555910000 
 H        0.6763530000     0.4285210000     1.0871420000 
 H        0.7528290000    -1.0320750000     0.0856550000 
 H        2.5293350000     2.2018160000    -0.7039240000 
 H        4.0729940000     1.7164080000     0.0060620000 
 H        2.6820880000     2.0680830000     1.0377060000 
 H        2.8624220000    -1.8534980000    -0.1613140000 
 H        5.2849570000     0.0851010000    -0.2240310000 
 H        5.0396260000    -2.9593330000    -0.4358110000 
 H        6.5806550000    -1.9377830000    -0.4919250000 
*
