! RI PBE def2-SVP def2-SVP/J NBO PAL2
% maxcore 2000
% output
    # printlevel mini
    print[ P_Basis ] 0
    print[ P_SCFInfo ] 1
    print[ P_SCFIterInfo ] 1
    print[ P_OrbEn ] 0
    print[ P_Cartesian ] 0
end
*xyz 0 1
 C        0.9515320000    -0.0372380000     0.1481610000 
 C        2.4520850000     0.0219790000     0.0862380000 
 C        3.1008150000     0.9557390000    -0.8903500000 
 C        3.1888290000    -0.7532620000     0.8970310000 
 C        4.6027360000    -0.7637510000     0.9080010000 
 C        5.8075460000    -0.7822260000     0.9274160000 
 H        0.4916970000     0.6457190000    -0.5661250000 
 H        0.5855830000     0.2271750000     1.1440190000 
 H        0.5855890000    -1.0439470000    -0.0713550000 
 H        2.3630110000     1.5101850000    -1.4702030000 
 H        3.7445880000     0.4093670000    -1.5854910000 
 H        3.7446170000     1.6746460000    -0.3756880000 
 H        2.6936070000    -1.4220680000     1.5965110000 
 H        6.8712370000    -0.7989870000     0.9447960000 
*
