! RI PBE def2-SVP def2-SVP/J NBO PAL2
% maxcore 2000
% output
    # printlevel mini
    print[ P_Basis ] 0
    print[ P_SCFInfo ] 1
    print[ P_SCFIterInfo ] 1
    print[ P_OrbEn ] 0
    print[ P_Cartesian ] 0
end
*xyz 0 1
 C        0.9080200000     0.0145850000     0.0732020000 
 C        2.4407360000     0.0157240000     0.0806130000 
 C        2.9551490000     1.3532940000     0.6244100000 
 C        2.9552330000    -1.1320350000     0.9566230000 
 C        2.9288650000    -0.1674600000    -1.2875410000 
 C        3.3293830000    -0.3181950000    -2.4100910000 
 H        0.5323340000     0.1510170000     1.0908590000 
 H        0.5208130000    -0.9295900000    -0.3144120000 
 H        0.5208210000     0.8233320000    -0.5494030000 
 H        2.5960670000     1.5002650000     1.6465990000 
 H        2.6024630000     2.1848430000     0.0113490000 
 H        4.0464960000     1.3763440000     0.6348160000 
 H        2.5972410000    -1.0053570000     1.9818950000 
 H        4.0465730000    -1.1517100000     0.9718740000 
 H        2.6019100000    -2.0953690000     0.5840180000 
 H        3.6841960000    -0.4516890000    -3.4044120000 
*
