! RI PBE def2-SVP def2-SVP/J NBO PAL2
% maxcore 2000
% output
    # printlevel mini
    print[ P_Basis ] 0
    print[ P_SCFInfo ] 1
    print[ P_SCFIterInfo ] 1
    print[ P_OrbEn ] 0
    print[ P_Cartesian ] 0
end
*xyz 0 1
 C        1.0335650000     0.2492070000    -0.1644590000 
 C        2.5252420000     0.0030130000     0.0751830000 
 C        2.8098880000    -0.0647640000     1.5667090000 
 C        3.0142580000    -1.1943830000    -0.7069790000 
 C        2.9935450000    -1.0517760000    -2.1993340000 
 C        3.4492940000    -2.3137060000    -0.1352590000 
 H        0.7038950000     1.1447500000     0.3681850000 
 H        0.4450310000    -0.5970080000     0.2010050000 
 H        0.8014510000     0.3902130000    -1.2214170000 
 H        3.0643030000     0.8726820000    -0.3279450000 
 H        2.2500480000    -0.8754320000     2.0417300000 
 H        2.5080100000     0.8672460000     2.0502970000 
 H        3.8714120000    -0.2229160000     1.7685520000 
 H        3.5532150000    -0.1642470000    -2.5133350000 
 H        1.9749580000    -0.9308580000    -2.5795370000 
 H        3.4319860000    -1.9231200000    -2.6871350000 
 H        3.4845660000    -2.4421070000     0.9394610000 
 H        3.7897440000    -3.1500140000    -0.7363140000 
*
