! RI PBE def2-SVP def2-SVP/J NBO PAL2
% maxcore 2000
% output
    # printlevel mini
    print[ P_Basis ] 0
    print[ P_SCFInfo ] 1
    print[ P_SCFIterInfo ] 1
    print[ P_OrbEn ] 0
    print[ P_Cartesian ] 0
end
*xyz 0 1
 C        1.0623310000     0.1026410000    -0.0193930000 
 C        2.5959390000     0.0254620000     0.0229530000 
 C        3.0906160000     0.0277540000     1.3992300000 
 C        3.4720590000     0.0465130000     2.5359370000 
 C        3.0906180000    -1.1340710000    -0.7184150000 
 C        3.4720670000    -2.0826970000    -1.3449590000 
 H        0.7208630000     0.9961330000     0.5045850000 
 H        0.6274740000    -0.7737030000     0.4614030000 
 H        0.7208650000     0.1407620000    -1.0544920000 
 H        2.9949740000     0.9223620000    -0.4691220000 
 H        3.8177410000     0.0569090000     3.5424620000 
 H        3.8177530000    -2.9259670000    -1.8945910000 
*
