! RI PBE def2-SVP def2-SVP/J NBO PAL2
% maxcore 2000
% output
    # printlevel mini
    print[ P_Basis ] 0
    print[ P_SCFInfo ] 1
    print[ P_SCFIterInfo ] 1
    print[ P_OrbEn ] 0
    print[ P_Cartesian ] 0
end
*xyz 0 1
 C        0.9034870000    -0.0618550000     0.0059310000 
 C        2.3549550000    -0.0649500000     0.0194490000 
 C        3.5580810000    -0.0637020000     0.0300100000 
 C        5.0180880000    -0.0824610000     0.0459080000 
 C        5.5476040000    -0.5569890000     1.3993350000 
 C        5.5699180000    -0.9359920000    -1.0961460000 
 H        0.5002820000    -0.4165280000     0.9579780000 
 H        0.5158340000    -0.7109650000    -0.7834640000 
 H        0.5136610000     0.9444890000    -0.1677020000 
 H        5.3618930000     0.9485680000    -0.1076040000 
 H        5.2323280000    -1.5848850000     1.5934500000 
 H        5.1740690000     0.0700450000     2.2104560000 
 H        6.6400050000    -0.5251320000     1.4115540000 
 H        5.2553770000    -1.9760140000    -0.9818200000 
 H        6.6624470000    -0.9062900000    -1.0981760000 
 H        5.2122700000    -0.5790390000    -2.0632490000 
*
