! RI PBE def2-SVP def2-SVP/J NBO PAL2
% maxcore 2000
% output
    # printlevel mini
    print[ P_Basis ] 0
    print[ P_SCFInfo ] 1
    print[ P_SCFIterInfo ] 1
    print[ P_OrbEn ] 0
    print[ P_Cartesian ] 0
end
*xyz 0 1
 C        0.9843050000     0.0845530000    -0.0534300000 
 C        2.4306220000     0.0840790000    -0.0538750000 
 C        3.6388700000     0.0837000000    -0.0541480000 
 C        5.0026430000     0.0839990000    -0.0536930000 
 C        6.2108920000     0.0842000000    -0.0535390000 
 C        7.6572120000     0.0845470000    -0.0534240000 
 H        0.5931710000    -0.1692220000     0.9355480000 
 H        0.5925590000    -0.6447780000    -0.7676180000 
 H        0.5931720000     1.0679930000    -0.3278800000 
 H        8.0487240000    -0.1856750000    -1.0378840000 
 H        8.0486270000    -0.6328030000     0.6729760000 
 H        8.0483040000     1.0723970000     0.2047670000 
*
