! RI PBE def2-SVP def2-SVP/J NBO PAL2
% maxcore 2000
% output
    # printlevel mini
    print[ P_Basis ] 0
    print[ P_SCFInfo ] 1
    print[ P_SCFIterInfo ] 1
    print[ P_OrbEn ] 0
    print[ P_Cartesian ] 0
end
*xyz 0 1
 C        0.9887240000    -0.0080490000     0.0639450000 
 C        2.4395240000    -0.0314660000     0.0824230000 
 C        3.6415520000    -0.0529310000     0.0926410000 
 C        5.0982240000    -0.0899110000     0.1264460000 
 C        5.6325800000    -0.9351300000     1.2468590000 
 C        6.4845800000    -1.9356920000     1.0874790000 
 H        0.6054680000     0.9657510000     0.3791530000 
 H        0.5763720000    -0.7646160000     0.7363700000 
 H        0.6064020000    -0.2096270000    -0.9399450000 
 H        5.4730030000     0.9359220000     0.2388830000 
 H        5.4853210000    -0.4579710000    -0.8291800000 
 H        5.2753240000    -0.6793140000     2.2411950000 
 H        6.8487020000    -2.2210690000     0.1052100000 
 H        6.8486450000    -2.5081960000     1.9325190000 
*
