! RI PBE def2-SVP def2-SVP/J NBO PAL2
% maxcore 2000
% output
    # printlevel mini
    print[ P_Basis ] 0
    print[ P_SCFInfo ] 1
    print[ P_SCFIterInfo ] 1
    print[ P_OrbEn ] 0
    print[ P_Cartesian ] 0
end
*xyz 0 1
 C        2.1831540000     1.6017240000    -0.2638870000 
 C        2.6850570000     0.2332140000     0.1843340000 
 C        3.0429380000    -0.6543600000    -0.9619520000 
 C        4.2411170000    -1.1824730000    -1.1821460000 
 C        4.6035580000    -2.0557290000    -2.3379570000 
 C        5.7271570000    -1.4723670000    -3.1881570000 
 H        1.8962710000     2.2174760000     0.5918520000 
 H        1.3088020000     1.5066210000    -0.9135390000 
 H        2.9543090000     2.1358260000    -0.8239400000 
 H        1.9038810000    -0.2496090000     0.7849160000 
 H        3.5534650000     0.3485830000     0.8403180000 
 H        2.2417630000    -0.8662270000    -1.6715810000 
 H        5.0443580000    -0.9641200000    -0.4768310000 
 H        3.7168300000    -2.2286180000    -2.9556770000 
 H        4.9180290000    -3.0381650000    -1.9638200000 
 H        5.4314240000    -0.5138430000    -3.6210280000 
 H        5.9955250000    -2.1462520000    -4.0052250000 
 H        6.6256730000    -1.3014010000    -2.5889710000 
*
