! RI PBE def2-SVP def2-SVP/J NBO PAL2
% maxcore 2000
% output
    # printlevel mini
    print[ P_Basis ] 0
    print[ P_SCFInfo ] 1
    print[ P_SCFIterInfo ] 1
    print[ P_OrbEn ] 0
    print[ P_Cartesian ] 0
end
*xyz 0 1
 C        1.6931350000     0.7233230000     1.0394130000 
 C        2.7891060000     0.2706900000     0.0789490000 
 C        3.0950750000    -1.1825300000     0.1987240000 
 C        4.2846430000    -1.6983720000     0.5166450000 
 C        4.5503060000    -3.1166450000     0.6333320000 
 C        5.7352070000    -3.6387610000     0.9499980000 
 H        1.4647470000     1.7828400000     0.9030880000 
 H        1.9966400000     0.5710510000     2.0776050000 
 H        0.7704570000     0.1597670000     0.8775290000 
 H        3.7005890000     0.8518840000     0.2481510000 
 H        2.4676740000     0.4862280000    -0.9480790000 
 H        2.2648260000    -1.8663420000     0.0198580000 
 H        5.1220480000    -1.0269650000     0.7025280000 
 H        3.7094070000    -3.7813970000     0.4450200000 
 H        6.5959500000    -3.0067070000     1.1442440000 
 H        5.8826100000    -4.7090630000     1.0251840000 
*
