! RI PBE def2-SVP def2-SVP/J NBO PAL2
% maxcore 2000
% output
    # printlevel mini
    print[ P_Basis ] 0
    print[ P_SCFInfo ] 1
    print[ P_SCFIterInfo ] 1
    print[ P_OrbEn ] 0
    print[ P_Cartesian ] 0
end
*xyz 0 1
 C        2.5308340000    -1.5926220000     0.6711830000 
 C        2.5399690000    -0.1997340000     0.0461140000 
 C        2.9779920000    -0.1992970000    -1.3917280000 
 C        2.0908870000    -0.0916640000    -2.3860310000 
 C        4.3973350000    -0.3302650000    -1.7133700000 
 C        5.4059530000    -0.3655830000    -0.8440930000 
 H        2.2260090000    -1.5451560000     1.7192930000 
 H        3.5158460000    -2.0605880000     0.6266940000 
 H        1.8310360000    -2.2454650000     0.1447460000 
 H        3.1929190000     0.4592980000     0.6280710000 
 H        1.5365790000     0.2295130000     0.1065320000 
 H        1.0306070000     0.0249610000    -2.1911140000 
 H        2.4026380000    -0.1146030000    -3.4247050000 
 H        4.6245620000    -0.3900720000    -2.7755830000 
 H        5.2511160000    -0.3074370000     0.2273280000 
 H        6.4312850000    -0.4502760000    -1.1831260000 
*
