! RI PBE def2-SVP def2-SVP/J NBO PAL2
% maxcore 2000
% output
    # printlevel mini
    print[ P_Basis ] 0
    print[ P_SCFInfo ] 1
    print[ P_SCFIterInfo ] 1
    print[ P_OrbEn ] 0
    print[ P_Cartesian ] 0
end
*xyz 0 1
 C        1.0195940000     0.3463970000     0.0993460000 
 C        2.4777620000    -0.0778000000    -0.0193350000 
 C        2.8960870000    -1.0610130000     1.0423620000 
 C        3.2887770000    -2.3062550000     0.7631260000 
 C        2.8495010000    -0.5979700000     2.3909150000 
 C        2.8003050000    -0.1648680000     3.5125900000 
 H        0.7670770000     1.0784700000    -0.6707330000 
 H        0.8216070000     0.7983330000     1.0735030000 
 H        0.3529610000    -0.5114830000    -0.0147020000 
 H        3.1186870000     0.8075240000     0.0539620000 
 H        2.6631340000    -0.5278660000    -0.9980430000 
 H        3.3265250000    -2.6569710000    -0.2619630000 
 H        3.5809160000    -2.9963220000     1.5446670000 
 H        2.7623560000     0.2036240000     4.5102950000 
*
