! RI PBE def2-SVP def2-SVP/J NBO PAL2
% maxcore 2000
% output
    # printlevel mini
    print[ P_Basis ] 0
    print[ P_SCFInfo ] 1
    print[ P_SCFIterInfo ] 1
    print[ P_OrbEn ] 0
    print[ P_Cartesian ] 0
end
*xyz 0 1
 C        2.0423710000    -1.1901140000    -0.7228890000 
 C        2.6073810000     0.0371160000    -0.0135950000 
 C        3.0539070000     1.1327250000    -0.9431450000 
 C        1.9713960000     1.7586280000    -1.7678010000 
 C        4.3387020000     1.4901300000    -0.9908920000 
 C        4.9805520000     2.5362560000    -1.8381270000 
 H        1.7631580000    -1.9607240000    -0.0004750000 
 H        2.7804930000    -1.6189150000    -1.4054380000 
 H        1.1497260000    -0.9486390000    -1.3041770000 
 H        3.4510110000    -0.2642010000     0.6137600000 
 H        1.8409230000     0.4351390000     0.6645460000 
 H        1.1365310000     2.0678380000    -1.1297470000 
 H        1.5628250000     1.0467920000    -2.4920740000 
 H        2.3107460000     2.6324560000    -2.3219050000 
 H        5.0211710000     0.9557650000    -0.3312100000 
 H        4.2744900000     3.0631830000    -2.4797470000 
 H        5.7477500000     2.0950710000    -2.4832440000 
 H        5.4894850000     3.2812060000    -1.2174620000 
*
