! RI PBE def2-SVP def2-SVP/J NBO PAL2
% maxcore 2000
% output
    # printlevel mini
    print[ P_Basis ] 0
    print[ P_SCFInfo ] 1
    print[ P_SCFIterInfo ] 1
    print[ P_OrbEn ] 0
    print[ P_Cartesian ] 0
end
*xyz 0 1
 C        2.9249110000    -1.4671380000    -0.0951270000 
 C        2.5444460000    -0.0103240000     0.0917870000 
 C        3.0991810000     0.9222610000    -0.9926720000 
 C        2.5743790000     2.3483510000    -0.8262140000 
 C        4.5578430000     0.9092290000    -1.0117300000 
 C        5.7592280000     0.9116090000    -1.0091640000 
 H        2.5016540000    -2.0873060000     0.6980090000 
 H        4.0095210000    -1.5944600000    -0.0807560000 
 H        2.5565950000    -1.8520270000    -1.0503870000 
 H        2.8918730000     0.3473230000     1.0667330000 
 H        1.4541710000     0.0941050000     0.0906860000 
 H        2.7585180000     0.5424970000    -1.9654490000 
 H        2.8843750000     2.7604990000     0.1366190000 
 H        1.4826200000     2.3551390000    -0.8680100000 
 H        2.9553470000     3.0023220000    -1.6119480000 
 H        6.8233870000     0.9131110000    -1.0131280000 
*
