! RI PBE def2-SVP def2-SVP/J NBO PAL2
% maxcore 2000
% output
    # printlevel mini
    print[ P_Basis ] 0
    print[ P_SCFInfo ] 1
    print[ P_SCFIterInfo ] 1
    print[ P_OrbEn ] 0
    print[ P_Cartesian ] 0
end
*xyz 0 1
 C        0.9761090000    -0.0033790000     0.0065150000 
 C        2.4980380000     0.1132220000     0.0392430000 
 C        3.0026760000     0.6492800000     1.2949750000 
 C        3.3955500000     1.0930490000     2.3424170000 
 C        3.8990530000     1.6344510000     3.5963100000 
 C        5.3411330000     2.1264410000     3.4999460000 
 H        0.6436040000    -0.4076690000    -0.9521010000 
 H        0.5091350000     0.9728060000     0.1484280000 
 H        0.6206420000    -0.6633530000     0.7997460000 
 H        2.8367140000     0.7517090000    -0.7839980000 
 H        2.9471540000    -0.8703500000    -0.1367590000 
 H        3.8223700000     0.8671340000     4.3744100000 
 H        3.2497520000     2.4562910000     3.9173740000 
 H        6.0100000000     1.3130360000     3.2133690000 
 H        5.6750750000     2.5239930000     4.4608780000 
 H        5.4326960000     2.9151370000     2.7511360000 
*
