! RI PBE def2-SVP def2-SVP/J NBO PAL2
% maxcore 2000
% output
    # printlevel mini
    print[ P_Basis ] 0
    print[ P_SCFInfo ] 1
    print[ P_SCFIterInfo ] 1
    print[ P_OrbEn ] 0
    print[ P_Cartesian ] 0
end
*xyz 0 1
 C        1.0483780000    -0.0774130000     0.0514780000 
 C        2.5744450000    -0.0878360000    -0.0236290000 
 C        3.0759240000    -0.2762580000    -1.3706620000 
 C        3.4746790000    -0.4343230000    -2.5003690000 
 C        3.9298780000    -0.6124800000    -3.7732860000 
 C        4.3320180000    -0.7715990000    -4.8989460000 
 H        0.7233780000     0.0670760000     1.0835620000 
 H        0.6354500000    -1.0197770000    -0.3114780000 
 H        0.6353290000     0.7289640000    -0.5563400000 
 H        2.9751100000    -0.8827870000     0.6152740000 
 H        2.9749950000     0.8519660000     0.3725710000 
 H        4.6878050000    -0.9110130000    -5.8919850000 
*
