! RI PBE def2-SVP def2-SVP/J NBO PAL2
% maxcore 2000
% output
    # printlevel mini
    print[ P_Basis ] 0
    print[ P_SCFInfo ] 1
    print[ P_SCFIterInfo ] 1
    print[ P_OrbEn ] 0
    print[ P_Cartesian ] 0
end
*xyz 0 1
 C        1.1777890000     0.5259840000    -0.0665710000 
 C        2.6853480000     0.3402660000    -0.0583380000 
 C        3.1010120000    -1.1285390000    -0.0895380000 
 C        4.5806690000    -1.3198280000    -0.1263580000 
 C        5.2951190000    -1.9652160000     0.7879480000 
 C        6.7740490000    -2.1477430000     0.7533250000 
 H        0.9040250000     1.5833000000    -0.0435820000 
 H        0.7162190000     0.0447690000     0.8004000000 
 H        0.7307700000     0.0861570000    -0.9627300000 
 H        3.1160130000     0.8124700000     0.8308910000 
 H        3.1258980000     0.8563370000    -0.9190460000 
 H        2.6495030000    -1.5970500000    -0.9745820000 
 H        2.6846520000    -1.6475340000     0.7809500000 
 H        5.1010340000    -0.8761060000    -0.9762830000 
 H        4.7729950000    -2.4057510000     1.6372720000 
 H        7.2136510000    -1.6760240000    -0.1279170000 
 H        7.0422510000    -3.2092340000     0.7405940000 
 H        7.2473830000    -1.7171590000     1.6417660000 
*
