! RI PBE def2-SVP def2-SVP/J NBO PAL2
% maxcore 2000
% output
    # printlevel mini
    print[ P_Basis ] 0
    print[ P_SCFInfo ] 1
    print[ P_SCFIterInfo ] 1
    print[ P_OrbEn ] 0
    print[ P_Cartesian ] 0
end
*xyz 0 1
 C        0.8754230000     0.4536350000     0.0172140000 
 C        2.3943180000     0.4589910000    -0.0100150000 
 C        2.9848150000    -0.8341690000    -0.5489930000 
 C        4.5108020000    -0.8307830000    -0.5809990000 
 C        5.0860830000    -2.1202560000    -1.0632900000 
 C        5.8640500000    -2.2624790000    -2.1273360000 
 H        0.4774160000     1.3938570000     0.4058760000 
 H        0.4947700000    -0.3541160000     0.6487480000 
 H        0.4634170000     0.3081930000    -0.9853800000 
 H        2.7802510000     0.6373480000     1.0005600000 
 H        2.7479870000     1.2982010000    -0.6202540000 
 H        2.6054620000    -1.0185370000    -1.5607560000 
 H        2.6365840000    -1.6755670000     0.0628880000 
 H        4.8802460000    -0.6288620000     0.4333130000 
 H        4.8675920000    -0.0101040000    -1.2124710000 
 H        4.8215490000    -3.0046460000    -0.4844440000 
 H        6.1515140000    -1.4098810000    -2.7355860000 
 H        6.2444100000    -3.2316360000    -2.4289640000 
*
