! RI PBE def2-SVP def2-SVP/J NBO PAL2
% maxcore 2000
% output
    # printlevel mini
    print[ P_Basis ] 0
    print[ P_SCFInfo ] 1
    print[ P_SCFIterInfo ] 1
    print[ P_OrbEn ] 0
    print[ P_Cartesian ] 0
end
*xyz 0 1
 C        1.0500570000     0.1227820000     0.0954520000 
 C        2.5669950000     0.0696220000     0.0391250000 
 C        3.0850820000    -0.6658520000    -1.1855390000 
 C        4.6122400000    -0.7160730000    -1.2350870000 
 C        5.1269750000    -1.4158770000    -2.3998440000 
 C        5.5314990000    -1.9972730000    -3.3695540000 
 H        0.7008440000     0.6557070000     0.9825620000 
 H        0.6210970000    -0.8827630000     0.1212300000 
 H        0.6406790000     0.6323310000    -0.7812300000 
 H        2.9521500000    -0.4164250000     0.9432390000 
 H        2.9716380000     1.0885360000     0.0476820000 
 H        2.7142800000    -0.1827510000    -2.0953970000 
 H        2.6938550000    -1.6883480000    -1.1998630000 
 H        4.9938900000    -1.2024430000    -0.3299280000 
 H        5.0143320000     0.3036340000    -1.2252490000 
 H        5.8958870000    -2.5120100000    -4.2266000000 
*
