! RI PBE def2-SVP def2-SVP/J NBO PAL2
% maxcore 2000
% output
    # printlevel mini
    print[ P_Basis ] 0
    print[ P_SCFInfo ] 1
    print[ P_SCFIterInfo ] 1
    print[ P_OrbEn ] 0
    print[ P_Cartesian ] 0
end
*xyz 0 1
 C       -1.2675110000     0.0917720000    -0.3904330000 
 C       -0.3800190000    -0.6012930000     0.6804670000 
 N       -0.5266220000     0.6692510000     1.4508810000 
 C       -0.3870480000     1.2769690000     0.0942320000 
 C        0.9980540000     0.8046780000    -0.3676240000 
 C        1.0028010000    -0.4661310000     0.0289970000 
 H       -2.3099810000     0.1837120000    -0.0833580000 
 H       -1.1605540000    -0.2306260000    -1.4246570000 
 H       -0.6536910000    -1.5359140000     1.1679030000 
 H        0.2906800000     0.8534040000     2.0310870000 
 H       -0.6681240000     2.3210320000    -0.0359100000 
 H        1.7396290000     1.3733330000    -0.9103650000 
 H        1.7493870000    -1.2374780000    -0.0955200000 
*
