! RI PBE def2-SVP def2-SVP/J NBO PAL2
% maxcore 2000
% output
    # printlevel mini
    print[ P_Basis ] 0
    print[ P_SCFInfo ] 1
    print[ P_SCFIterInfo ] 1
    print[ P_OrbEn ] 0
    print[ P_Cartesian ] 0
end
*xyz 0 1
 C        0.4409800000     1.3765060000     0.4741560000 
 C        0.8956910000     0.3551140000    -0.5261210000 
 N        0.8675090000    -1.0161890000    -0.1190210000 
 C       -0.4115660000    -1.2911860000     0.2959580000 
 N       -1.2891890000    -0.3892260000     0.0794140000 
 C       -0.5717910000     0.7444720000    -0.4363770000 
 H        0.7071500000     2.4043420000     0.2626500000 
 H        0.4156720000     1.1051380000     1.5235760000 
 H        1.5605790000     0.6164390000    -1.3395880000 
 H        1.6652550000    -1.4647790000     0.2983460000 
 H       -0.6370850000    -2.2535430000     0.7438670000 
 H       -1.0782840000     1.3517130000    -1.1753600000 
*
