! RI PBE def2-SVP def2-SVP/J NBO PAL2
% maxcore 2000
% output
    # printlevel mini
    print[ P_Basis ] 0
    print[ P_SCFInfo ] 1
    print[ P_SCFIterInfo ] 1
    print[ P_OrbEn ] 0
    print[ P_Cartesian ] 0
end
*xyz 0 1
 C        0.4437470000     1.4252710000     0.4247720000 
 C        0.8707980000     0.3236500000    -0.4934860000 
 N        0.8452860000    -1.0305370000    -0.0231920000 
 N       -0.3885690000    -1.3488210000     0.4857940000 
 C       -1.2145650000    -0.4235160000     0.1707740000 
 C       -0.5793700000     0.7535250000    -0.4596340000 
 H        0.7441360000     2.4251400000     0.1394150000 
 H        0.3939760000     1.2385080000     1.4910100000 
 H        1.5347160000     0.5327670000    -1.3230680000 
 H        1.6004580000    -1.3619640000     0.5571360000 
 H       -2.2699740000    -0.5417150000     0.3786570000 
 H       -1.0660380000     1.3109830000    -1.2493790000 
*
