! RI PBE def2-SVP def2-SVP/J NBO PAL2
% maxcore 2000
% output
    # printlevel mini
    print[ P_Basis ] 0
    print[ P_SCFInfo ] 1
    print[ P_SCFIterInfo ] 1
    print[ P_OrbEn ] 0
    print[ P_Cartesian ] 0
end
*xyz 0 1
 C        0.3722800000     0.8242200000    -0.2101820000 
 C       -0.6907700000    -0.1779750000     0.1278670000 
 C        0.7267790000    -0.6227710000    -0.0705680000 
 C        1.5324060000    -1.1457570000     1.0710310000 
 C        2.8485860000    -0.5663030000     1.4031480000 
 N        1.7118150000    -0.3931180000     2.3047100000 
 H        0.6755090000     1.5197770000     0.5644940000 
 H        0.3811620000     1.2524740000    -1.2044410000 
 H       -1.4244170000    -0.4275150000    -0.6282380000 
 H       -1.0710750000    -0.1763060000     1.1425390000 
 H        0.9275420000    -1.1418490000    -1.0033110000 
 H        1.3954610000    -2.2101200000     1.2488160000 
 H        3.1716100000     0.2856710000     0.8123460000 
 H        3.6479450000    -1.1930720000     1.7835210000 
 H        1.3355580000     0.5447440000     2.2124690000 
*
