! RI PBE def2-SVP def2-SVP/J NBO PAL2
% maxcore 2000
% output
    # printlevel mini
    print[ P_Basis ] 0
    print[ P_SCFInfo ] 1
    print[ P_SCFIterInfo ] 1
    print[ P_OrbEn ] 0
    print[ P_Cartesian ] 0
end
*xyz 0 1
 C       -0.4551930000     0.8522930000     0.1325390000 
 C       -0.4171570000    -0.5939090000    -0.2708230000 
 C        0.8342910000     0.0997670000     0.1562490000 
 N        1.3712030000    -0.2429020000     1.4355340000 
 C        2.6192980000    -0.9778870000     1.4282220000 
 C        2.5832460000     0.4476720000     1.8255990000 
 H       -0.8925010000     1.0865120000     1.0946640000 
 H       -0.5998860000     1.6017130000    -0.6354280000 
 H       -0.5357130000    -0.8435190000    -1.3177210000 
 H       -0.8297900000    -1.3131540000     0.4250090000 
 H        1.5623240000     0.3361440000    -0.6237810000 
 H        3.0606080000    -1.2125560000     0.4626600000 
 H        2.7158350000    -1.7554050000     2.1782570000 
 H        3.0003900000     1.1680960000     1.1262320000 
 H        2.6530440000     0.7289330000     2.8707880000 
*
