! RI PBE def2-SVP def2-SVP/J NBO PAL2
% maxcore 2000
% output
    # printlevel mini
    print[ P_Basis ] 0
    print[ P_SCFInfo ] 1
    print[ P_SCFIterInfo ] 1
    print[ P_OrbEn ] 0
    print[ P_Cartesian ] 0
end
*xyz 0 1
 C        0.8379250000     0.0102660000     1.0425310000 
 C        0.3262630000     0.9873530000    -0.0299060000 
 C       -1.1953730000     0.7878610000     0.0385860000 
 C       -1.2087810000    -0.7628500000     0.0626610000 
 C        0.3091610000    -0.9906500000     0.0008090000 
 N        0.7879400000    -0.0213240000    -1.0198170000 
 H        0.3732580000     0.0296010000     2.0290950000 
 H        1.9245920000     0.0018150000     1.1032970000 
 H        0.7066850000     2.0043020000    -0.1267980000 
 H       -1.6988780000     1.2057140000    -0.8364750000 
 H       -1.6424710000     1.2364520000     0.9286900000 
 H       -1.7196430000    -1.1988920000    -0.7991620000 
 H       -1.6633520000    -1.1758080000     0.9661240000 
 H        0.6719130000    -2.0165440000    -0.0643640000 
 H        0.2327600000    -0.0297940000    -1.8742810000 
*
