! RI PBE def2-SVP def2-SVP/J NBO PAL2
% maxcore 2000
% output
    # printlevel mini
    print[ P_Basis ] 0
    print[ P_SCFInfo ] 1
    print[ P_SCFIterInfo ] 1
    print[ P_OrbEn ] 0
    print[ P_Cartesian ] 0
end
*xyz 0 1
 C        0.7651170000     1.2992350000    -0.6391930000 
 C       -0.3383860000     0.9888880000     0.3277580000 
 C       -1.4206430000     0.0245360000    -0.1277880000 
 C       -0.7613790000    -1.3524760000     0.0523620000 
 N        0.6864800000    -1.1472350000    -0.0177920000 
 C        0.9480240000     0.2127830000     0.3792980000 
 H        1.3160990000     2.2227900000    -0.5016510000 
 H        0.6313060000     1.0016720000    -1.6744800000 
 H       -0.5702820000     1.7209740000     1.0910740000 
 H       -1.6998460000     0.2023940000    -1.1710350000 
 H       -2.3273360000     0.1258670000     0.4729710000 
 H       -1.0808000000    -2.0901120000    -0.6876340000 
 H       -1.0165190000    -1.7532550000     1.0396840000 
 H        1.0303490000    -1.3239790000    -0.9520190000 
 H        1.6590180000     0.3632180000     1.1846660000 
*
