! RI PBE def2-SVP def2-SVP/J NBO PAL2
% maxcore 2000
% output
    # printlevel mini
    print[ P_Basis ] 0
    print[ P_SCFInfo ] 1
    print[ P_SCFIterInfo ] 1
    print[ P_OrbEn ] 0
    print[ P_Cartesian ] 0
end
*xyz 0 1
 C        0.7530140000     1.3163030000     0.3163930000 
 C       -0.7029400000     1.2449110000    -0.1691210000 
 C       -0.9923240000    -0.2329690000    -0.2327820000 
 N       -0.5450010000    -0.9576470000     0.9624100000 
 C        0.2873870000    -0.9672750000    -0.2462160000 
 C        1.4182120000     0.0277810000    -0.1914130000 
 H        0.7691060000     1.3243940000     1.4062340000 
 H        1.2655870000     2.2159150000    -0.0287440000 
 H       -0.8051040000     1.6673640000    -1.1744610000 
 H       -1.3868270000     1.7863340000     0.4895760000 
 H       -1.8610230000    -0.5986110000    -0.7696260000 
 H       -1.0478800000    -1.8353540000     1.0337940000 
 H        0.4014920000    -1.8968700000    -0.7933630000 
 H        1.8185520000     0.1618860000    -1.2020360000 
 H        2.2410290000    -0.2953500000     0.4514530000 
*
