! RI PBE def2-SVP def2-SVP/J NBO PAL2
% maxcore 2000
% output
    # printlevel mini
    print[ P_Basis ] 0
    print[ P_SCFInfo ] 1
    print[ P_SCFIterInfo ] 1
    print[ P_OrbEn ] 0
    print[ P_Cartesian ] 0
end
*xyz 0 1
 C        0.3911270000     1.3138580000    -0.2606240000 
 C       -1.0510070000     1.0637260000     0.1472470000 
 C       -1.3808810000    -0.3909550000     0.0344220000 
 C       -0.4417520000    -1.3221500000    -0.0820470000 
 C        1.0179120000    -1.0039960000    -0.0577210000 
 N        1.2480850000     0.3501260000     0.4040730000 
 H        0.7018990000     2.3197800000     0.0317950000 
 H        0.4637450000     1.2541680000    -1.3617740000 
 H       -1.7250860000     1.6509030000    -0.4859450000 
 H       -1.2145190000     1.4054610000     1.1763990000 
 H       -2.4283240000    -0.6787590000     0.0391460000 
 H       -0.7134190000    -2.3668380000    -0.1985150000 
 H        1.4342490000    -1.1952970000    -1.0661040000 
 H        1.5280740000    -1.6980980000     0.6197330000 
 H        2.2207970000     0.5979810000     0.2872950000 
*
