! RI PBE def2-SVP def2-SVP/J NBO PAL2
% maxcore 2000
% output
    # printlevel mini
    print[ P_Basis ] 0
    print[ P_SCFInfo ] 1
    print[ P_SCFIterInfo ] 1
    print[ P_OrbEn ] 0
    print[ P_Cartesian ] 0
end
*xyz 0 1
 C       -1.4003620000    -0.0761290000    -0.0181070000 
 C       -0.7560960000     1.1502740000     0.0047860000 
 C        0.6302870000     1.1661630000     0.0435920000 
 N        1.3787900000     0.0685780000     0.0601260000 
 C        0.7484870000    -1.1008000000     0.0378480000 
 C       -0.6320420000    -1.2289800000    -0.0012370000 
 H       -2.4827260000    -0.1324850000    -0.0485770000 
 H       -1.3146260000     2.0789080000    -0.0071090000 
 H        1.1674140000     2.1107900000     0.0623660000 
 H        1.3809450000    -1.9845270000     0.0519970000 
 H       -1.0909700000    -2.2105930000    -0.0179850000 
*
