! RI PBE def2-SVP def2-SVP/J NBO PAL2
% maxcore 2000
% output
    # printlevel mini
    print[ P_Basis ] 0
    print[ P_SCFInfo ] 1
    print[ P_SCFIterInfo ] 1
    print[ P_OrbEn ] 0
    print[ P_Cartesian ] 0
end
*xyz 0 1
 C        0.7266390000     1.2627820000    -0.2128490000 
 C       -0.7306290000     1.2376410000     0.2305990000 
 C       -1.4111010000    -0.0368540000    -0.2404980000 
 N       -0.6832920000    -1.1926250000     0.2498060000 
 C        0.6763190000    -1.2382820000    -0.2554490000 
 C        1.4415830000    -0.0126180000     0.2150750000 
 H        1.2363540000     2.1433830000     0.1888470000 
 H        0.7682020000     1.3485650000    -1.3062400000 
 H       -1.2669630000     2.1092940000    -0.1561200000 
 H       -0.7834410000     1.2784020000     1.3238340000 
 H       -1.4695640000    -0.0191280000    -1.3458530000 
 H       -2.4362900000    -0.0823010000     0.1370810000 
 H       -1.1749770000    -2.0439500000     0.0134350000 
 H        0.7091130000    -1.2730400000    -1.3614590000 
 H        1.1559960000    -2.1498930000     0.1113170000 
 H        2.4604970000    -0.0360940000    -0.1827330000 
 H        1.5150620000    -0.0445830000     1.3074080000 
*
