! RI PBE def2-SVP def2-SVP/J NBO PAL2
% maxcore 2000
% output
    # printlevel mini
    print[ P_Basis ] 0
    print[ P_SCFInfo ] 1
    print[ P_SCFIterInfo ] 1
    print[ P_OrbEn ] 0
    print[ P_Cartesian ] 0
end
*xyz 0 1
 C        1.4037090000    -0.2056680000     0.1201310000 
 C        0.4082220000    -1.3288630000     0.0292810000 
 C       -0.8936180000    -1.0777350000    -0.0494150000 
 N       -1.3566530000     0.2305070000    -0.0490300000 
 C       -0.4415840000     1.2511260000     0.0339300000 
 N        0.8140260000     1.1281090000     0.1125760000 
 H        2.1263320000    -0.2623840000    -0.7058430000 
 H        2.0132960000    -0.3025330000     1.0293420000 
 H        0.7561890000    -2.3546960000     0.0279450000 
 H       -1.6481260000    -1.8512670000    -0.1164660000 
 H       -2.3358290000     0.4332970000    -0.1079010000 
 H       -0.8792650000     2.2496970000     0.0285520000 
*
