! RI PBE def2-SVP def2-SVP/J NBO PAL2
% maxcore 2000
% output
    # printlevel mini
    print[ P_Basis ] 0
    print[ P_SCFInfo ] 1
    print[ P_SCFIterInfo ] 1
    print[ P_OrbEn ] 0
    print[ P_Cartesian ] 0
end
*xyz 0 1
 C       -0.6492880000    -1.2452370000    -0.0230220000 
 C       -1.4011580000    -0.0936070000    -0.0259760000 
 C       -0.7075990000     1.1068150000     0.0596100000 
 N        0.6135050000     1.1878080000     0.1418690000 
 N        1.3339390000     0.0843270000     0.1447000000 
 C        0.7285190000    -1.0928720000     0.0652520000 
 H       -1.0977780000    -2.2296030000    -0.0859880000 
 H       -2.4826280000    -0.1084430000    -0.0914290000 
 H       -1.2268130000     2.0597840000     0.0633420000 
 H        1.3920920000    -1.9515620000     0.0736310000 
*
