! RI PBE def2-SVP def2-SVP/J NBO PAL2
% maxcore 2000
% output
    # printlevel mini
    print[ P_Basis ] 0
    print[ P_SCFInfo ] 1
    print[ P_SCFIterInfo ] 1
    print[ P_OrbEn ] 0
    print[ P_Cartesian ] 0
end
*xyz 0 1
 C        0.2966020000    -1.3996470000     0.2431490000 
 C       -1.0733870000    -0.9487780000    -0.2396050000 
 C       -1.2278350000     0.4758310000     0.1909790000 
 N       -0.2574200000     1.2964220000     0.2538500000 
 N        0.9764880000     0.8878920000    -0.2619750000 
 C        1.2679760000    -0.3488050000    -0.1938080000 
 H        0.5796160000    -2.3709400000    -0.1646450000 
 H        0.3070500000    -1.4911250000     1.3372460000 
 H       -1.8782970000    -1.5589350000     0.1722610000 
 H       -1.1379070000    -1.0211490000    -1.3332810000 
 H       -2.1914290000     0.8468850000     0.5349650000 
 H        2.2626230000    -0.6257620000    -0.5380360000 
*
