! RI PBE def2-SVP def2-SVP/J NBO PAL2
% maxcore 2000
% output
    # printlevel mini
    print[ P_Basis ] 0
    print[ P_SCFInfo ] 1
    print[ P_SCFIterInfo ] 1
    print[ P_OrbEn ] 0
    print[ P_Cartesian ] 0
end
*xyz 0 1
 C        0.8724250000    -0.0009330000     0.9197330000 
 C        0.3090560000    -1.0705790000    -0.0310960000 
 C        0.7176900000    -0.0430520000    -1.1001210000 
 N        0.3689500000     1.0040330000    -0.0789520000 
 C       -1.0875320000     0.7652410000     0.0375830000 
 C       -1.1870960000    -0.7879030000     0.0776330000 
 H        1.9623690000     0.0273470000     0.9580840000 
 H        0.4518900000     0.0927020000     1.9246650000 
 H        0.6373060000    -2.1108340000    -0.0345310000 
 H        0.1487390000     0.0101660000    -2.0323060000 
 H        1.7889890000    -0.0198590000    -1.3051300000 
 H       -1.5993500000     1.2054590000    -0.8196350000 
 H       -1.4643700000     1.2423160000     0.9436520000 
 H       -1.7551200000    -1.2026280000    -0.7580370000 
 H       -1.6198550000    -1.1657770000     1.0065660000 
*
