! RI PBE def2-SVP def2-SVP/J NBO PAL2
% maxcore 2000
% output
    # printlevel mini
    print[ P_Basis ] 0
    print[ P_SCFInfo ] 1
    print[ P_SCFIterInfo ] 1
    print[ P_OrbEn ] 0
    print[ P_Cartesian ] 0
end
*xyz 0 1
 C        0.4349240000     1.4053140000     0.2742410000 
 C        1.1386490000     0.3260140000    -0.4457260000 
 C        1.0439430000    -1.0805010000     0.0837250000 
 C       -0.4494680000    -1.2389350000     0.1114810000 
 N       -1.1133290000    -0.2639330000    -0.3543820000 
 N       -0.2296630000     0.7373390000    -0.8475820000 
 H        0.7115870000     2.4376750000     0.0931800000 
 H        0.0353480000     1.1928960000     1.2606470000 
 H        1.9239470000     0.5801230000    -1.1467240000 
 H        1.4874880000    -1.2313290000     1.0726220000 
 H        1.5126000000    -1.8025590000    -0.5935090000 
 H       -0.9708380000    -2.1025850000     0.5127470000 
*
