! RI PBE def2-SVP def2-SVP/J NBO PAL2
% maxcore 2000
% output
    # printlevel mini
    print[ P_Basis ] 0
    print[ P_SCFInfo ] 1
    print[ P_SCFIterInfo ] 1
    print[ P_OrbEn ] 0
    print[ P_Cartesian ] 0
end
*xyz 0 1
 C        0.9111030000    -0.0025180000     0.9590250000 
 C        0.3284830000    -1.0320230000    -0.0399230000 
 C        0.7477260000    -0.0334600000    -1.1445840000 
 C        0.3212940000     0.9840500000    -0.0614320000 
 N       -1.1198570000     0.7568580000     0.1186070000 
 C       -1.1623860000    -0.7298210000     0.0866710000 
 H        2.0009740000     0.0000410000     0.9671640000 
 H        0.5061470000     0.0260990000     1.9722330000 
 H        0.6315020000    -2.0783240000    -0.0473390000 
 H        0.1930550000    -0.0385960000    -2.0873750000 
 H        1.8229300000    -0.0437710000    -1.3289000000 
 H        0.5939830000     2.0383240000    -0.0893640000 
 H       -1.6279200000     1.1355680000    -0.6717040000 
 H       -1.7397020000    -1.1144870000    -0.7595860000 
 H       -1.5947540000    -1.1303520000     1.0081960000 
*
