! RI PBE def2-SVP def2-SVP/J NBO PAL2
% maxcore 2000
% output
    # printlevel mini
    print[ P_Basis ] 0
    print[ P_SCFInfo ] 1
    print[ P_SCFIterInfo ] 1
    print[ P_OrbEn ] 0
    print[ P_Cartesian ] 0
end
*xyz 0 1
 C        0.6792100000     1.1788350000    -0.7446630000 
 C       -0.3410720000     0.9040990000     0.3159740000 
 C       -1.4178650000    -0.1067030000    -0.0279300000 
 N       -0.7345580000    -1.2616200000    -0.6071900000 
 C        0.6128830000    -1.2838800000    -0.0413330000 
 C        0.9582990000     0.1508830000     0.3073970000 
 H        1.2216580000     2.1139320000    -0.6850620000 
 H        0.4781790000     0.8435740000    -1.7579480000 
 H       -0.5462560000     1.6639550000     1.0603240000 
 H       -2.1729660000     0.2686720000    -0.7240550000 
 H       -1.9383440000    -0.4037700000     0.8903710000 
 H       -0.6796200000    -1.1554270000    -1.6100550000 
 H        1.3069620000    -1.7485620000    -0.7470240000 
 H        0.6228200000    -1.8884180000     0.8734670000 
 H        1.7269700000     0.3462190000     1.0453190000 
*
