! RI PBE def2-SVP def2-SVP/J NBO PAL2
% maxcore 2000
% output
    # printlevel mini
    print[ P_Basis ] 0
    print[ P_SCFInfo ] 1
    print[ P_SCFIterInfo ] 1
    print[ P_OrbEn ] 0
    print[ P_Cartesian ] 0
end
*xyz 0 1
 C        0.6225870000     1.2735230000    -0.0690310000 
 N       -0.7474700000     1.2838290000    -0.5742040000 
 C       -1.4084680000     0.0889120000    -0.0568820000 
 C       -0.3111150000    -0.9219650000     0.2060530000 
 N        0.6624190000    -1.1363130000    -0.8546240000 
 C        0.9645280000    -0.1779330000     0.1984400000 
 H        0.6871340000     1.8327670000     0.8726460000 
 H        1.2956250000     1.7588870000    -0.7816970000 
 H       -0.7590330000     1.2933360000    -1.5828490000 
 H       -2.1686270000    -0.2616110000    -0.7609710000 
 H       -1.9185860000     0.3129660000     0.8882420000 
 H       -0.5011880000    -1.7684130000     0.8568690000 
 H        0.3757550000    -0.6534280000    -1.7026940000 
 H        1.8006380000    -0.4258580000     0.8431210000 
*
