! RI PBE def2-SVP def2-SVP/J NBO PAL2
% maxcore 2000
% output
    # printlevel mini
    print[ P_Basis ] 0
    print[ P_SCFInfo ] 1
    print[ P_SCFIterInfo ] 1
    print[ P_OrbEn ] 0
    print[ P_Cartesian ] 0
end
*xyz 0 1
 C        0.4356270000     1.4384550000     0.2590350000 
 C        1.0423970000     0.3066450000    -0.4595750000 
 C        0.9683060000    -1.0673870000     0.1792450000 
 N       -0.4597340000    -1.3158050000     0.3818770000 
 C       -1.0826540000    -0.3405210000    -0.1278650000 
 N       -0.3473150000     0.7027410000    -0.7528990000 
 H        0.6896830000     2.4546770000    -0.0191780000 
 H        0.1549280000     1.2923130000     1.2979740000 
 H        1.7644100000     0.5004400000    -1.2438720000 
 H        1.4977130000    -1.1463950000     1.1330220000 
 H        1.3784430000    -1.8366440000    -0.4822640000 
 H       -2.1661030000    -0.2658000000    -0.1267890000 
*
