! RI PBE def2-SVP def2-SVP/J NBO PAL2
% maxcore 2000
% output
    # printlevel mini
    print[ P_Basis ] 0
    print[ P_SCFInfo ] 1
    print[ P_SCFIterInfo ] 1
    print[ P_OrbEn ] 0
    print[ P_Cartesian ] 0
end
*xyz 0 1
 C        0.8120320000    -0.3086980000    -0.7399830000 
 C        1.9553040000     0.5375190000    -0.2572470000 
 C        3.3691260000     0.0271280000    -0.2760800000 
 C        2.9707190000     1.1626700000    -1.1731020000 
 C        2.9075950000     0.9357650000    -2.6625430000 
 N        3.4336870000     2.4566430000    -0.7398510000 
 H        0.4426920000    -0.9486700000     0.0661170000 
 H        1.1039790000    -0.9637530000    -1.5634230000 
 H       -0.0259180000     0.3045390000    -1.0843780000 
 H        1.7230380000     1.1665860000     0.5962830000 
 H        3.5434180000    -0.9381660000    -0.7389320000 
 H        4.0092060000     0.2587580000     0.5656560000 
 H        2.5794270000    -0.0727270000    -2.9200600000 
 H        3.8960980000     1.0837270000    -3.1089750000 
 H        2.2194510000     1.6434930000    -3.1367330000 
 H        4.3685550000     2.6335810000    -1.0912530000 
 H        2.8348920000     3.1881270000    -1.1072070000 
*
