! RI PBE def2-SVP def2-SVP/J NBO PAL2
% maxcore 2000
% output
    # printlevel mini
    print[ P_Basis ] 0
    print[ P_SCFInfo ] 1
    print[ P_SCFIterInfo ] 1
    print[ P_OrbEn ] 0
    print[ P_Cartesian ] 0
end
*xyz 0 1
 C        0.9483270000     0.0711440000    -0.1089410000 
 C        2.4539580000     0.1067990000    -0.0172770000 
 C        3.1532370000     1.1433330000     0.8842690000 
 C        4.2158460000     0.0781990000     1.2133470000 
 C        3.2032130000    -0.9918820000     0.7831230000 
 N        3.7145780000    -2.1964240000     0.1848030000 
 H        0.5520870000     0.9562880000    -0.6146340000 
 H        0.4992960000     0.0303810000     0.8880860000 
 H        0.6046050000    -0.8061800000    -0.6658770000 
 H        2.8964300000     0.1533740000    -1.0205520000 
 H        2.5402810000     1.3791950000     1.7586500000 
 H        3.4854160000     2.0773070000     0.4293600000 
 H        4.6199210000     0.0276000000     2.2251120000 
 H        5.0485080000     0.1201700000     0.5048910000 
 H        2.5883290000    -1.2762090000     1.6452860000 
 H        4.2208600000    -1.9868070000    -0.6674470000 
 H        2.9696190000    -2.8393890000    -0.0530170000 
*
