! RI PBE def2-SVP def2-SVP/J NBO PAL2
% maxcore 2000
% output
    # printlevel mini
    print[ P_Basis ] 0
    print[ P_SCFInfo ] 1
    print[ P_SCFIterInfo ] 1
    print[ P_OrbEn ] 0
    print[ P_Cartesian ] 0
end
*xyz 0 1
 C        0.8316140000     0.0928070000    -0.2214180000 
 C        2.3056800000     0.0598460000     0.0836230000 
 C        2.6379820000    -0.0373080000     1.5472210000 
 C        3.2017300000    -0.6421950000    -0.9027920000 
 C        3.2164260000     0.8507190000    -0.8320440000 
 N        4.4068460000     1.5329270000    -0.4235380000 
 H        0.3382060000    -0.8303300000     0.0998250000 
 H        0.6514880000     0.2079840000    -1.2932190000 
 H        0.3424360000     0.9270290000     0.2917210000 
 H        2.2527140000    -0.9681460000     1.9740920000 
 H        2.1900390000     0.7913070000     2.1058290000 
 H        3.7146890000    -0.0129690000     1.7260430000 
 H        2.7587020000    -1.1223180000    -1.7675080000 
 H        4.0696690000    -1.1595370000    -0.5058930000 
 H        2.7029980000     1.3609120000    -1.6436150000 
 H        5.0660690000     0.9121220000     0.0232920000 
 H        4.2070030000     2.2926600000     0.2148820000 
*
