! RI PBE def2-SVP def2-SVP/J NBO PAL2
% maxcore 2000
% output
    # printlevel mini
    print[ P_Basis ] 0
    print[ P_SCFInfo ] 1
    print[ P_SCFIterInfo ] 1
    print[ P_OrbEn ] 0
    print[ P_Cartesian ] 0
end
*xyz 0 1
 C        0.9195770000    -0.0583760000    -0.0884670000 
 C        2.4230030000    -0.0836520000     0.0578940000 
 C        3.0264870000     1.1452710000     0.7526620000 
 C        4.3513910000     0.6347230000     1.3397330000 
 C        4.2579890000    -0.9046200000     1.1991990000 
 N        2.8837060000    -1.2297590000     0.8352080000 
 H        0.6002210000     0.7956260000    -0.6897590000 
 H        0.4380790000     0.0281600000     0.8916590000 
 H        0.5575920000    -0.9700860000    -0.5677480000 
 H        2.8757700000    -0.1761360000    -0.9393200000 
 H        2.3488740000     1.4699760000     1.5496910000 
 H        3.1570660000     1.9924340000     0.0752300000 
 H        4.4669710000     0.9378160000     2.3823420000 
 H        5.2146260000     1.0270720000     0.7977410000 
 H        4.5500310000    -1.4390020000     2.1048210000 
 H        4.9199850000    -1.2470540000     0.3972710000 
 H        2.3190320000    -1.2896940000     1.6772550000 
*
