! RI PBE def2-SVP def2-SVP/J NBO PAL2
% maxcore 2000
% output
    # printlevel mini
    print[ P_Basis ] 0
    print[ P_SCFInfo ] 1
    print[ P_SCFIterInfo ] 1
    print[ P_OrbEn ] 0
    print[ P_Cartesian ] 0
end
*xyz 0 1
 C        1.1816940000    -0.2094510000     0.4800290000 
 C        2.5919180000     0.0446040000    -0.0289220000 
 C        2.6021730000     0.2650940000    -1.5261560000 
 C        3.3548680000     1.0777990000     0.8341300000 
 C        4.0020600000    -0.1238350000     1.5354520000 
 N        3.5692580000    -0.9791660000     0.4201190000 
 H        0.5207150000     0.6299390000     0.2462310000 
 H        1.1709680000    -0.3546100000     1.5638020000 
 H        0.7609370000    -1.1046220000     0.0111630000 
 H        1.9998030000     1.1368480000    -1.7987500000 
 H        3.6231790000     0.4182750000    -1.8794280000 
 H        2.1912010000    -0.6047030000    -2.0473850000 
 H        2.7505690000     1.7498420000     1.4437350000 
 H        4.0681620000     1.6603470000     0.2498130000 
 H        3.5271190000    -0.3526810000     2.4976530000 
 H        5.0845180000    -0.0927830000     1.6842390000 
 H        3.1645590000    -1.8697670000     0.6838970000 
*
