! RI PBE def2-SVP def2-SVP/J NBO PAL2
% maxcore 2000
% output
    # printlevel mini
    print[ P_Basis ] 0
    print[ P_SCFInfo ] 1
    print[ P_SCFIterInfo ] 1
    print[ P_OrbEn ] 0
    print[ P_Cartesian ] 0
end
*xyz 0 1
 C        1.0700980000    -0.1042760000    -0.0503910000 
 C        2.5738180000    -0.0235790000     0.0107400000 
 C        3.2536240000     1.0495610000     0.8778650000 
 C        4.2383510000    -0.0609890000     1.2663410000 
 N        3.2511960000    -1.0455760000     0.8217070000 
 C        3.7176000000    -2.2396480000     0.1772840000 
 H        0.6588240000     0.7521600000    -0.5920350000 
 H        0.6493390000    -0.1168890000     0.9574840000 
 H        0.7439970000    -1.0112060000    -0.5672120000 
 H        2.9920500000     0.0055760000    -1.0120050000 
 H        2.6218970000     1.3551840000     1.7133620000 
 H        3.6526890000     1.9286560000     0.3746300000 
 H        4.5463030000    -0.1481300000     2.3118810000 
 H        5.1383590000    -0.0462440000     0.6296560000 
 H        4.2635230000    -2.8610380000     0.8920420000 
 H        4.3871200000    -2.0308560000    -0.6775630000 
 H        2.8699120000    -2.8247840000    -0.1885780000 
*
