! RI PBE def2-SVP def2-SVP/J NBO PAL2
% maxcore 2000
% output
    # printlevel mini
    print[ P_Basis ] 0
    print[ P_SCFInfo ] 1
    print[ P_SCFIterInfo ] 1
    print[ P_OrbEn ] 0
    print[ P_Cartesian ] 0
end
*xyz 0 1
 C        0.9256620000     0.1504430000    -0.1367190000 
 C        2.4212420000     0.0433890000    -0.1523040000 
 C        3.1992780000    -0.7916570000    -1.1062020000 
 C        2.5953720000    -1.6415950000    -2.1838640000 
 N        3.1483360000     0.6498900000    -1.2499570000 
 C        4.3471260000     1.3792730000    -0.9108370000 
 H        0.4870200000    -0.6215060000     0.5015830000 
 H        0.5090850000     0.0477720000    -1.1386810000 
 H        0.6155880000     1.1237710000     0.2530670000 
 H        2.8877680000     0.1501670000     0.8286520000 
 H        4.1313160000    -1.1845280000    -0.6959820000 
 H        2.3712750000    -2.6440640000    -1.8089310000 
 H        1.6744560000    -1.2025470000    -2.5674730000 
 H        3.2881980000    -1.7448210000    -3.0233790000 
 H        5.0130300000     1.4134230000    -1.7767620000 
 H        4.8997390000     0.9320070000    -0.0685330000 
 H        4.0878980000     2.4065020000    -0.6424780000 
*
