! RI PBE def2-SVP def2-SVP/J NBO PAL2
% maxcore 2000
% output
    # printlevel mini
    print[ P_Basis ] 0
    print[ P_SCFInfo ] 1
    print[ P_SCFIterInfo ] 1
    print[ P_OrbEn ] 0
    print[ P_Cartesian ] 0
end
*xyz 0 1
 C        0.9521550000     0.0043570000     0.1952340000 
 C        2.4654860000    -0.0068660000     0.0982000000 
 C        3.1563420000     1.2187560000     0.7386940000 
 C        4.2820050000     0.6371890000     1.6038700000 
 N        4.4674710000    -0.7003430000     1.0615420000 
 C        3.1258370000    -1.1890890000     0.8064260000 
 H        0.5277470000     0.8623420000    -0.3323430000 
 H        0.6279880000     0.0616020000     1.2388750000 
 H        0.5163910000    -0.8993680000    -0.2400680000 
 H        2.7523620000    -0.0535050000    -0.9564890000 
 H        2.4554330000     1.7991050000     1.3434570000 
 H        3.5509010000     1.8868230000    -0.0286650000 
 H        3.9662940000     0.6224810000     2.6604740000 
 H        5.2085060000     1.2134370000     1.5445680000 
 H        4.9907190000    -1.3007070000     1.6852360000 
 H        2.5660330000    -1.4173210000     1.7328180000 
 H        3.1436290000    -2.0946850000     0.1943520000 
*
