! RI PBE def2-SVP def2-SVP/J NBO PAL2
% maxcore 2000
% output
    # printlevel mini
    print[ P_Basis ] 0
    print[ P_SCFInfo ] 1
    print[ P_SCFIterInfo ] 1
    print[ P_OrbEn ] 0
    print[ P_Cartesian ] 0
end
*xyz 0 1
 C        1.1561810000    -0.1041660000     0.3592010000 
 C        2.4403760000    -0.0459090000     0.0364070000 
 C        3.2938380000     1.1934430000    -0.0729250000 
 C        4.5706540000     0.6727260000    -0.7447840000 
 N        4.7045500000    -0.7214090000    -0.3329850000 
 C        3.3334910000    -1.2247480000    -0.3014060000 
 H        0.5799680000     0.7895280000     0.5729100000 
 H        0.6303300000    -1.0513790000     0.4204010000 
 H        3.5260240000     1.5751080000     0.9278700000 
 H        2.8003360000     1.9979730000    -0.6224350000 
 H        5.4662600000     1.2402590000    -0.4881220000 
 H        4.4611010000     0.7040620000    -1.8344410000 
 H        5.0815910000    -0.7462590000     0.6075430000 
 H        3.2322140000    -2.0548430000     0.4002220000 
 H        3.0719860000    -1.6083650000    -1.2956670000 
*
