! RI PBE def2-SVP def2-SVP/J NBO PAL2
% maxcore 2000
% output
    # printlevel mini
    print[ P_Basis ] 0
    print[ P_SCFInfo ] 1
    print[ P_SCFIterInfo ] 1
    print[ P_OrbEn ] 0
    print[ P_Cartesian ] 0
end
*xyz 0 1
 C        0.8553540000     0.0007560000     0.2127490000 
 C        2.3634270000     0.0095510000     0.1020660000 
 C        2.8195640000    -0.0070970000    -1.3455790000 
 C        3.1218780000     1.0704940000     0.9341320000 
 N        4.0932430000     0.0380220000     1.3211260000 
 C        3.1361550000    -1.0178150000     0.9626410000 
 H        0.4217060000     0.8734850000    -0.2851960000 
 H        0.5301960000     0.0127780000     1.2560990000 
 H        0.4337630000    -0.8910850000    -0.2611060000 
 H        2.4406580000     0.8671340000    -1.8835560000 
 H        2.4527290000    -0.9007810000    -1.8594180000 
 H        3.9100230000    -0.0004930000    -1.4071450000 
 H        2.5078020000     1.4479560000     1.7634500000 
 H        3.5481600000     1.9211370000     0.3922980000 
 H        4.3926590000     0.0532490000     2.2868140000 
 H        2.5271390000    -1.3808510000     1.8020690000 
 H        3.5741250000    -1.8770290000     0.4441570000 
*
