! RI PBE def2-SVP def2-SVP/J NBO PAL2
% maxcore 2000
% output
    # printlevel mini
    print[ P_Basis ] 0
    print[ P_SCFInfo ] 1
    print[ P_SCFIterInfo ] 1
    print[ P_OrbEn ] 0
    print[ P_Cartesian ] 0
end
*xyz 0 1
 C        0.9976100000    -0.0467030000     0.0453100000 
 C        2.5065860000    -0.0726810000    -0.0015050000 
 C        3.2924940000     1.0115180000     0.7685400000 
 C        4.3029200000    -0.0596030000     1.2227250000 
 N        5.5349690000    -0.0075630000     0.4619590000 
 C        3.2568620000    -1.1367260000     0.8281190000 
 H        0.5970370000     0.8296500000    -0.4724340000 
 H        0.6432190000    -0.0129040000     1.0801400000 
 H        0.5678660000    -0.9358480000    -0.4249710000 
 H        2.8379260000    -0.1062210000    -1.0445900000 
 H        2.7117000000     1.4045400000     1.6069480000 
 H        3.7050200000     1.8507530000     0.2045210000 
 H        4.5674530000    -0.0379980000     2.2824900000 
 H        5.3413180000     0.0045550000    -0.5332510000 
 H        6.0979170000    -0.8311390000     0.6408110000 
 H        2.6616780000    -1.4598400000     1.6877990000 
 H        3.6323260000    -2.0224910000     0.3093890000 
*
