! RI PBE def2-SVP def2-SVP/J NBO PAL2
% maxcore 2000
% output
    # printlevel mini
    print[ P_Basis ] 0
    print[ P_SCFInfo ] 1
    print[ P_SCFIterInfo ] 1
    print[ P_OrbEn ] 0
    print[ P_Cartesian ] 0
end
*xyz 0 1
 C        0.9120650000     0.1190190000    -0.0343350000 
 C        2.4024260000     0.0884920000    -0.0294970000 
 C        3.2426580000     1.1743230000    -0.0265100000 
 N        4.5309500000     0.7203580000    -0.0224320000 
 C        4.5381030000    -0.6411240000    -0.0227240000 
 C        3.2342060000    -1.0640570000    -0.0270570000 
 H        0.5399200000     1.1453170000    -0.0353180000 
 H        0.4966960000    -0.3828570000     0.8443440000 
 H        0.5024180000    -0.3824680000    -0.9159190000 
 H        3.0195290000     2.2298640000    -0.0269890000 
 H        5.3474930000     1.3024030000    -0.0196490000 
 H        5.4613370000    -1.1980770000    -0.0198530000 
 H        2.9062800000    -2.0927820000    -0.0283600000 
*
