! RI PBE def2-SVP def2-SVP/J NBO PAL2
% maxcore 2000
% output
    # printlevel mini
    print[ P_Basis ] 0
    print[ P_SCFInfo ] 1
    print[ P_SCFIterInfo ] 1
    print[ P_OrbEn ] 0
    print[ P_Cartesian ] 0
end
*xyz 0 1
 C        0.9715700000     0.0637210000     0.3729470000 
 C        2.3901830000     0.0812870000    -0.1487620000 
 C        2.8312050000    -1.1621870000    -0.9243140000 
 C        3.7722600000    -0.5322800000    -1.9093100000 
 N        3.6260190000     0.7295740000    -2.0043880000 
 N        2.6055450000     1.1210290000    -1.1642350000 
 H        0.8413280000    -0.7289610000     1.1136340000 
 H        0.2678900000    -0.1024420000    -0.4454960000 
 H        0.7150960000     1.0111940000     0.8534900000 
 H        3.0895040000     0.2326340000     0.6899770000 
 H        1.9821290000    -1.6214780000    -1.4498630000 
 H        3.2870080000    -1.9285780000    -0.2964630000 
 H        4.4724430000    -1.0507160000    -2.5520440000 
 H        2.7811400000     2.0509020000    -0.8112740000 
*
