! RI PBE def2-SVP def2-SVP/J NBO PAL2
% maxcore 2000
% output
    # printlevel mini
    print[ P_Basis ] 0
    print[ P_SCFInfo ] 1
    print[ P_SCFIterInfo ] 1
    print[ P_OrbEn ] 0
    print[ P_Cartesian ] 0
end
*xyz 0 1
 C        1.2402530000     0.4529880000     0.0764910000 
 C        2.6629990000    -0.0189660000     0.1352750000 
 C        3.2027990000    -0.9050550000    -0.9350860000 
 N        3.6556960000     0.4555570000    -0.8041070000 
 C        3.4528700000     1.4289690000    -1.7669760000 
 N        3.0553980000     2.6193160000    -1.6016310000 
 H        0.5937740000    -0.2706670000     0.5787590000 
 H        0.8964410000     0.5663160000    -0.9528290000 
 H        1.1133420000     1.4149260000     0.5792970000 
 H        3.0576590000    -0.1630590000     1.1385820000 
 H        2.5297770000    -1.1376110000    -1.7571180000 
 H        3.9290880000    -1.6762800000    -0.6989320000 
 H        3.7568310000     1.1103280000    -2.7672970000 
 H        2.8255620000     2.7945470000    -0.6231380000 
*
