! RI PBE def2-SVP def2-SVP/J NBO PAL2
% maxcore 2000
% output
    # printlevel mini
    print[ P_Basis ] 0
    print[ P_SCFInfo ] 1
    print[ P_SCFIterInfo ] 1
    print[ P_OrbEn ] 0
    print[ P_Cartesian ] 0
end
*xyz 0 1
 C        0.9832710000     0.1030750000    -0.0488500000 
 C        2.4837990000     0.0962320000    -0.0385400000 
 C        3.2770690000    -0.6913710000    -1.0679110000 
 N        2.6940020000    -1.4677110000    -2.1195400000 
 C        3.2705620000     0.7945620000    -1.1217770000 
 N        4.4753920000     1.5380900000    -0.9007660000 
 H        0.5719720000    -0.7543360000     0.4927320000 
 H        0.5930630000     0.0612700000    -1.0684020000 
 H        0.5860360000     1.0092680000     0.4166570000 
 H        2.9408270000     0.1267350000     0.9474020000 
 H        4.1988030000    -1.1256690000    -0.6859080000 
 H        2.1658850000    -0.8981990000    -2.7643680000 
 H        2.0839240000    -2.1919530000    -1.7628140000 
 H        2.6560530000     1.2124600000    -1.9185380000 
 H        5.1899490000     0.9601040000    -0.4799290000 
 H        4.3136940000     2.3257440000    -0.2855480000 
*
