! RI PBE def2-SVP def2-SVP/J NBO PAL2
% maxcore 2000
% output
    # printlevel mini
    print[ P_Basis ] 0
    print[ P_SCFInfo ] 1
    print[ P_SCFIterInfo ] 1
    print[ P_OrbEn ] 0
    print[ P_Cartesian ] 0
end
*xyz 0 1
 C        0.9566690000     0.0889500000     0.5025700000 
 C        2.2430400000     0.0789420000    -0.2938240000 
 C        3.2879280000     1.1154320000     0.1621350000 
 N        3.9331980000     0.0748220000     0.9636830000 
 C        5.3628450000     0.0673270000     1.0662430000 
 C        3.2767860000    -0.9650890000     0.1702970000 
 H        0.3574320000     0.9743840000     0.2729830000 
 H        1.1693530000     0.0920110000     1.5745910000 
 H        0.3479890000    -0.7917970000     0.2798940000 
 H        2.0356720000     0.0758490000    -1.3648240000 
 H        2.9338710000     1.9850030000     0.7259060000 
 H        3.9165670000     1.4626030000    -0.6740380000 
 H        5.7028090000     0.9500400000     1.6142790000 
 H        5.8643820000     0.0611900000     0.0804540000 
 H        5.6929450000    -0.8154350000     1.6202100000 
 H        2.9134910000    -1.8263820000     0.7408530000 
 H        3.9016440000    -1.3254500000    -0.6631210000 
*
