! RI PBE def2-SVP def2-SVP/J NBO PAL2
% maxcore 2000
% output
    # printlevel mini
    print[ P_Basis ] 0
    print[ P_SCFInfo ] 1
    print[ P_SCFIterInfo ] 1
    print[ P_OrbEn ] 0
    print[ P_Cartesian ] 0
end
*xyz 0 1
 C        1.1479740000     0.4967160000    -0.2197590000 
 C        2.3946170000    -0.3309530000    -0.0729050000 
 C        2.8909670000    -0.5247180000     1.3381570000 
 N        3.3022690000     0.7542710000     1.8939200000 
 C        2.6974970000    -1.3620010000    -1.0825650000 
 N        3.4876210000    -0.1298190000    -1.0291920000 
 H        0.3010710000     0.0159810000     0.2779890000 
 H        0.8862740000     0.6291570000    -1.2729130000 
 H        1.2897210000     1.4784890000     0.2367540000 
 H        3.6924210000    -1.2774570000     1.3184310000 
 H        2.0788340000    -0.9276690000     1.9529070000 
 H        4.1009130000     1.0951260000     1.3705420000 
 H        3.5966990000     0.6504490000     2.8562470000 
 H        1.9929020000    -1.4899890000    -1.8987980000 
 H        3.2346710000    -2.2622120000    -0.8010150000 
 H        3.1923580000     0.5022180000    -1.7660000000 
*
