! RI PBE def2-SVP def2-SVP/J NBO PAL2
% maxcore 2000
% output
    # printlevel mini
    print[ P_Basis ] 0
    print[ P_SCFInfo ] 1
    print[ P_SCFIterInfo ] 1
    print[ P_OrbEn ] 0
    print[ P_Cartesian ] 0
end
*xyz 0 1
 C        0.9672840000    -0.0286720000     0.0542280000 
 C        2.3003320000    -0.0286700000     0.0524970000 
 C        3.2314240000     1.0938260000     0.0505750000 
 N        4.4463800000     0.6868340000     0.0491750000 
 N        4.4463830000    -0.7441680000     0.0501230000 
 C        3.2314290000    -1.1511640000     0.0520620000 
 H        0.4015510000     0.8966230000     0.0543610000 
 H        0.4015550000    -0.9539690000     0.0555870000 
 H        2.9827710000     2.1479390000     0.0502090000 
 H        2.9827810000    -2.2052780000     0.0530930000 
*
