! RI PBE def2-SVP def2-SVP/J NBO PAL2
% maxcore 2000
% output
    # printlevel mini
    print[ P_Basis ] 0
    print[ P_SCFInfo ] 1
    print[ P_SCFIterInfo ] 1
    print[ P_OrbEn ] 0
    print[ P_Cartesian ] 0
end
*xyz 0 1
 C        1.0475390000     0.0051480000    -0.0957230000 
 C        2.3632410000    -0.0103270000     0.1250980000 
 C        3.2784900000    -1.2141420000     0.1963800000 
 N        4.5530380000    -0.5792630000     0.4551130000 
 N        4.4796040000     0.7490450000     0.5344400000 
 C        3.2548080000     1.1140890000     0.3530650000 
 H        0.4795410000    -0.9036230000    -0.2542200000 
 H        0.5025580000     0.9409380000    -0.1230650000 
 H        3.2874220000    -1.7786840000    -0.7427720000 
 H        2.9930790000    -1.8991290000     1.0026850000 
 H        5.4397490000    -1.0259320000     0.5739740000 
 H        2.9833520000     2.1591810000     0.3794150000 
*
