! RI PBE def2-SVP def2-SVP/J NBO PAL2
% maxcore 2000
% output
    # printlevel mini
    print[ P_Basis ] 0
    print[ P_SCFInfo ] 1
    print[ P_SCFIterInfo ] 1
    print[ P_OrbEn ] 0
    print[ P_Cartesian ] 0
end
*xyz 0 1
 C        0.9429480000    -0.0671530000    -0.3252450000 
 C        2.4025450000    -0.0887390000     0.0884960000 
 C        2.8679500000    -1.3738150000     0.7770290000 
 N        3.9147630000    -0.8749090000     1.6695440000 
 N        3.6132200000     0.4272650000     2.0129940000 
 C        2.7975180000     0.8972240000     1.1558800000 
 H        0.7335070000    -0.8341160000    -1.0749300000 
 H        0.6705860000     0.8985610000    -0.7576910000 
 H        0.2920300000    -0.2471190000     0.5340710000 
 H        3.0282240000     0.1005860000    -0.7967160000 
 H        3.2600200000    -2.1224680000     0.0878040000 
 H        2.0306170000    -1.8136310000     1.3413540000 
 H        4.0899790000    -1.4223760000     2.4992000000 
 H        2.4966930000     1.9372810000     1.1989110000 
*
