! RI PBE def2-SVP def2-SVP/J NBO PAL2
% maxcore 2000
% output
    # printlevel mini
    print[ P_Basis ] 0
    print[ P_SCFInfo ] 1
    print[ P_SCFIterInfo ] 1
    print[ P_OrbEn ] 0
    print[ P_Cartesian ] 0
end
*xyz 0 1
 C        0.9761340000     0.0741410000    -0.1647920000 
 C        2.4740340000     0.1404580000    -0.1315330000 
 N        3.2870010000    -0.5857480000    -1.1126340000 
 C        3.3064220000     0.8835660000    -1.1066450000 
 C        2.6873070000     1.6244400000    -2.2606740000 
 C        4.6090920000     1.4714030000    -0.6327880000 
 H        0.6288240000    -0.8738560000     0.2559850000 
 H        0.5781900000     0.1497430000    -1.1783180000 
 H        0.5358340000     0.8794130000     0.4299640000 
 H        2.8846090000     0.0658120000     0.8743740000 
 H        2.6836610000    -0.9133910000    -1.8624750000 
 H        1.7432690000     1.1847960000    -2.5851020000 
 H        3.3684030000     1.6199860000    -3.1172550000 
 H        2.4984490000     2.6691880000    -1.9973800000 
 H        5.0308690000     0.8684750000     0.1724360000 
 H        4.4686870000     2.4933090000    -0.2683660000 
 H        5.3378160000     1.5002640000    -1.4484170000 
*
