! RI PBE def2-SVP def2-SVP/J NBO PAL2
% maxcore 2000
% output
    # printlevel mini
    print[ P_Basis ] 0
    print[ P_SCFInfo ] 1
    print[ P_SCFIterInfo ] 1
    print[ P_OrbEn ] 0
    print[ P_Cartesian ] 0
end
*xyz 0 1
 C        1.0339510000    -0.0064430000    -0.0058420000 
 C        2.5275010000     0.0266670000     0.1078380000 
 N        3.3591270000    -0.7853770000    -0.7631540000 
 C        3.3461240000     0.6746760000    -0.9493430000 
 C        4.5500490000     1.3964980000    -0.6539010000 
 C        5.5416540000     2.0278160000    -0.4091310000 
 H        0.6287790000    -0.9028050000     0.4716210000 
 H        0.7203500000    -0.0088430000    -1.0537000000 
 H        0.5843750000     0.8633430000     0.4793890000 
 H        2.9189340000     0.0881310000     1.1195590000 
 H        2.7915680000    -1.2162990000    -1.4871990000 
 H        2.7894490000     1.0601510000    -1.8002320000 
 H        6.4263200000     2.5772550000    -0.1905050000 
*
