! RI PBE def2-SVP def2-SVP/J NBO PAL2
% maxcore 2000
% output
    # printlevel mini
    print[ P_Basis ] 0
    print[ P_SCFInfo ] 1
    print[ P_SCFIterInfo ] 1
    print[ P_OrbEn ] 0
    print[ P_Cartesian ] 0
end
*xyz 0 1
 C        1.0861840000     0.1183050000    -0.1388720000 
 C        2.5742880000     0.2049360000     0.0155870000 
 N        3.4463420000    -0.7229110000    -0.7068400000 
 C        3.4283260000     0.6909980000    -1.0800540000 
 C        4.6950960000     1.4553140000    -0.8298790000 
 N        4.4212930000     2.8812430000    -0.7107470000 
 H        0.6760050000    -0.7128870000     0.4418440000 
 H        0.8100210000    -0.0324500000    -1.1868190000 
 H        0.6049560000     1.0370650000     0.2061870000 
 H        2.9202290000     0.4045080000     1.0272120000 
 H        2.8991090000    -1.2691520000    -1.3644250000 
 H        2.9095090000     0.9513810000    -2.0030040000 
 H        5.4215110000     1.2027610000    -1.6190730000 
 H        5.1214550000     1.1008070000     0.1122440000 
 H        4.0927390000     3.2531290000    -1.5941750000 
 H        5.2695290000     3.3847620000    -0.4840960000 
*
