! RI PBE def2-SVP def2-SVP/J NBO PAL2
% maxcore 2000
% output
    # printlevel mini
    print[ P_Basis ] 0
    print[ P_SCFInfo ] 1
    print[ P_SCFIterInfo ] 1
    print[ P_OrbEn ] 0
    print[ P_Cartesian ] 0
end
*xyz 0 1
 C        1.0262850000     0.0547070000    -0.1713150000 
 C        2.5200460000     0.0872110000    -0.0662030000 
 N        3.3509120000    -0.7212000000    -0.9377820000 
 C        3.3248030000     0.7302040000    -1.1380930000 
 C        4.5337630000     1.4506550000    -0.8409760000 
 N        5.4806390000     2.0571350000    -0.5996270000 
 H        0.6271730000    -0.8346090000     0.3229770000 
 H        0.7043210000     0.0370010000    -1.2162700000 
 H        0.5825170000     0.9312500000     0.3059900000 
 H        2.9193830000     0.1590990000     0.9415410000 
 H        2.7909810000    -1.1673340000    -1.6583060000 
 H        2.7768690000     1.1277910000    -1.9873470000 
*
