! RI PBE def2-SVP def2-SVP/J NBO PAL2
% maxcore 2000
% output
    # printlevel mini
    print[ P_Basis ] 0
    print[ P_SCFInfo ] 1
    print[ P_SCFIterInfo ] 1
    print[ P_OrbEn ] 0
    print[ P_Cartesian ] 0
end
*xyz 0 1
 C        0.8059490000     0.0217790000    -0.1854380000 
 C        2.2988500000    -0.0205500000     0.0024010000 
 N        2.8054730000     0.0150570000     1.3468810000 
 C        3.1243770000    -0.8464440000    -0.9498780000 
 C        3.1899600000     0.6433910000    -1.0277820000 
 N        4.4117040000     1.3095830000    -0.6912030000 
 H        0.3246920000    -0.8545090000     0.2625540000 
 H        0.5379360000     0.0422780000    -1.2449870000 
 H        0.3778200000     0.9144300000     0.2831340000 
 H        2.5655390000    -0.8326520000     1.8472630000 
 H        2.4070120000     0.7925070000     1.8611180000 
 H        2.6181530000    -1.3948250000    -1.7353300000 
 H        3.9908630000    -1.3443280000    -0.5296880000 
 H        2.6773170000     1.1005870000    -1.8685190000 
 H        4.7629310000     0.9143830000     0.1755890000 
 H        4.2275140000     2.2887020000    -0.5018250000 
*
