! RI PBE def2-SVP def2-SVP/J NBO PAL2
% maxcore 2000
% output
    # printlevel mini
    print[ P_Basis ] 0
    print[ P_SCFInfo ] 1
    print[ P_SCFIterInfo ] 1
    print[ P_OrbEn ] 0
    print[ P_Cartesian ] 0
end
*xyz 0 1
 C        0.9872670000     0.1293310000    -0.2026860000 
 C        2.4387300000     0.0485270000     0.2443620000 
 N        2.6973090000    -1.1498880000     1.0470180000 
 C        3.5842830000    -0.8235000000     2.1590090000 
 C        3.4879790000     0.6665220000     2.2346050000 
 C        2.8595580000     1.1488050000     1.1727460000 
 H        0.7289670000    -0.7299790000    -0.8262980000 
 H        0.8061980000     1.0363540000    -0.7865800000 
 H        0.3271610000     0.1289110000     0.6670200000 
 H        3.0742000000     0.0859000000    -0.6599890000 
 H        3.0354840000    -1.9207770000     0.4916550000 
 H        4.6309610000    -1.1319560000     1.9949220000 
 H        3.2569650000    -1.3097280000     3.0869560000 
 H        3.9006860000     1.2455680000     3.0511450000 
 H        2.6672620000     2.1941110000     0.9644160000 
*
