! RI PBE def2-SVP def2-SVP/J NBO PAL2
% maxcore 2000
% output
    # printlevel mini
    print[ P_Basis ] 0
    print[ P_SCFInfo ] 1
    print[ P_SCFIterInfo ] 1
    print[ P_OrbEn ] 0
    print[ P_Cartesian ] 0
end
*xyz 0 1
 C        0.8881510000     0.0632860000     0.0781050000 
 C        2.3984120000     0.0600010000    -0.0618430000 
 N        2.8638650000     0.0320990000    -1.4381050000 
 C        3.1632810000     1.1276000000     0.7525840000 
 N        4.0602090000     0.0864510000     1.2743270000 
 C        3.1626440000    -0.9743490000     0.7949830000 
 H        0.4571960000     0.9376170000    -0.4203360000 
 H        0.5740790000     0.0844960000     1.1249350000 
 H        0.4566510000    -0.8301660000    -0.3846820000 
 H        2.5067750000     0.8360270000    -1.9434580000 
 H        2.5062890000    -0.7913420000    -1.9106290000 
 H        2.5289010000     1.6095220000     1.5068680000 
 H        3.6688030000     1.8979160000     0.1626420000 
 H        4.2079740000     0.1065620000     2.2736320000 
 H        2.5279800000    -1.4250730000     1.5680810000 
 H        3.6676910000    -1.7681380000     0.2365960000 
*
