! RI PBE def2-SVP def2-SVP/J NBO PAL2
% maxcore 2000
% output
    # printlevel mini
    print[ P_Basis ] 0
    print[ P_SCFInfo ] 1
    print[ P_SCFIterInfo ] 1
    print[ P_OrbEn ] 0
    print[ P_Cartesian ] 0
end
*xyz 0 1
 C        1.0246050000     0.1738460000     0.0137390000 
 C        2.5039500000     0.0795750000     0.0163880000 
 N        3.2633920000     1.1123340000     0.0221560000 
 N        4.6208650000     0.6954970000     0.0232470000 
 C        4.6584270000    -0.5805680000     0.0181310000 
 C        3.3018660000    -1.1817500000     0.0128600000 
 H        0.7218540000     1.2200010000     0.0173150000 
 H        0.5985140000    -0.3232070000     0.8901520000 
 H        0.6021050000    -0.3161650000    -0.8683590000 
 H        5.6015900000    -1.1146350000     0.0178890000 
 H        3.1080000000    -1.8113690000     0.8885090000 
 H        3.1116310000    -1.8041510000    -0.8687270000 
*
