! RI PBE def2-SVP def2-SVP/J NBO PAL2
% maxcore 2000
% output
    # printlevel mini
    print[ P_Basis ] 0
    print[ P_SCFInfo ] 1
    print[ P_SCFIterInfo ] 1
    print[ P_OrbEn ] 0
    print[ P_Cartesian ] 0
end
*xyz 0 1
 C        3.0183510000     1.2061000000     0.2764840000 
 C        2.3173430000    -0.0932810000    -0.0893280000 
 C        3.1334840000    -1.3128380000     0.2393110000 
 C        2.8829920000    -2.6133020000    -0.4748460000 
 C        4.1385880000    -1.8538130000    -0.7422100000 
 N        5.3998460000    -2.4237400000    -0.3667260000 
 H        2.4054200000     2.0757470000     0.0280220000 
 H        3.9686500000     1.3027790000    -0.2553840000 
 H        3.2339410000     1.2480930000     1.3477930000 
 H        2.0893120000    -0.1006550000    -1.1616340000 
 H        1.3495690000    -0.1480330000     0.4230460000 
 H        3.4221560000    -1.4062410000     1.2840440000 
 H        2.1177920000    -2.6379290000    -1.2420370000 
 H        2.9688620000    -3.5324090000     0.0946540000 
 H        4.1792510000    -1.3352410000    -1.6971690000 
 H        5.2794810000    -3.1325880000     0.3447690000 
 H        6.0215800000    -1.7178590000     0.0088310000 
*
