! RI PBE def2-SVP def2-SVP/J NBO PAL2
% maxcore 2000
% output
    # printlevel mini
    print[ P_Basis ] 0
    print[ P_SCFInfo ] 1
    print[ P_SCFIterInfo ] 1
    print[ P_OrbEn ] 0
    print[ P_Cartesian ] 0
end
*xyz 0 1
 C        1.9433100000    -0.1132650000    -0.9516150000 
 C        2.3484280000    -0.1630960000     0.3093850000 
 C        3.0611200000     0.9168860000     1.0403270000 
 C        3.0605710000     2.3595070000     0.5104080000 
 C        2.6491130000     2.7694160000     1.9324300000 
 N        2.4258960000     1.3531440000     2.3206220000 
 H        1.4417170000    -0.9535340000    -1.4171710000 
 H        2.1072720000     0.7629100000    -1.5705160000 
 H        2.1726260000    -1.0667590000     0.8922160000 
 H        4.0795510000     0.5700480000     1.2620770000 
 H        2.2700000000     2.5356720000    -0.2215400000 
 H        4.0023230000     2.7499220000     0.1228580000 
 H        1.7743590000     3.4167400000     2.0226350000 
 H        3.4627160000     3.2086700000     2.5163990000 
 H        1.4347990000     1.1397500000     2.2904880000 
*
