! RI PBE def2-SVP def2-SVP/J NBO PAL2
% maxcore 2000
% output
    # printlevel mini
    print[ P_Basis ] 0
    print[ P_SCFInfo ] 1
    print[ P_SCFIterInfo ] 1
    print[ P_OrbEn ] 0
    print[ P_Cartesian ] 0
end
*xyz 0 1
 C        1.0806330000    -0.1216680000     0.6178550000 
 C        2.2358850000     0.0205550000     0.3182800000 
 C        3.6403930000     0.1598710000    -0.0358090000 
 C        4.4080680000     1.2103090000     0.8055660000 
 C        4.9344370000     0.0215510000     1.6221650000 
 N        4.5334000000    -0.8769080000     0.5251980000 
 H        0.0560650000    -0.2446980000     0.8786860000 
 H        3.7271370000     0.2629290000    -1.1220350000 
 H        3.8062740000     1.9540330000     1.3226560000 
 H        5.1852810000     1.6991800000     0.2192770000 
 H        4.3689600000    -0.1227250000     2.5501710000 
 H        6.0026490000     0.0020960000     1.8498370000 
 H        4.0650170000    -1.7300360000     0.8030530000 
*
