! RI PBE def2-SVP def2-SVP/J NBO PAL2
% maxcore 2000
% output
    # printlevel mini
    print[ P_Basis ] 0
    print[ P_SCFInfo ] 1
    print[ P_SCFIterInfo ] 1
    print[ P_OrbEn ] 0
    print[ P_Cartesian ] 0
end
*xyz 0 1
 C        2.8990160000     1.1997810000     0.3772090000 
 C        2.5888230000    -0.2309020000    -0.0334920000 
 C        3.0325590000    -0.5333160000    -1.4356330000 
 C        2.3378530000    -1.5097260000    -2.3047920000 
 N        2.1820160000    -0.0842420000    -2.5189120000 
 C        2.8473940000     0.4542060000    -3.6825550000 
 H        2.5609690000     1.4052180000     1.3953960000 
 H        2.4016260000     1.9059890000    -0.2918920000 
 H        3.9737450000     1.3996410000     0.3380770000 
 H        1.5121670000    -0.4129460000     0.0345780000 
 H        3.0736100000    -0.9348870000     0.6524660000 
 H        4.1061210000    -0.4383200000    -1.6102840000 
 H        1.4596210000    -2.0334680000    -1.9397380000 
 H        2.9398980000    -2.0656830000    -3.0205040000 
 H        2.2007470000     0.3433010000    -4.5564990000 
 H        3.8074790000    -0.0417580000    -3.8993470000 
 H        3.0379340000     1.5197130000    -3.5333670000 
*
