! RI PBE def2-SVP def2-SVP/J NBO PAL2
% maxcore 2000
% output
    # printlevel mini
    print[ P_Basis ] 0
    print[ P_SCFInfo ] 1
    print[ P_SCFIterInfo ] 1
    print[ P_OrbEn ] 0
    print[ P_Cartesian ] 0
end
*xyz 0 1
 C        3.3284730000     0.6232160000    -1.0745940000 
 C        2.5228440000    -0.0247470000     0.0405180000 
 C        3.1289290000    -1.3201460000     0.5247550000 
 C        2.3495220000    -2.1961900000     1.5215440000 
 N        2.8048970000    -3.3857330000     0.7856150000 
 C        3.1008890000    -2.5576020000    -0.3935400000 
 H        2.8695560000     1.5555090000    -1.4111410000 
 H        3.4065140000    -0.0389170000    -1.9415020000 
 H        4.3450670000     0.8528310000    -0.7434570000 
 H        1.4996980000    -0.2145830000    -0.3050450000 
 H        2.4362990000     0.6699670000     0.8842160000 
 H        4.1463600000    -1.1506560000     0.8897970000 
 H        1.2680680000    -2.0094120000     1.4501500000 
 H        2.6440670000    -2.1657100000     2.5743080000 
 H        2.1134100000    -4.1118280000     0.6509460000 
 H        2.2743610000    -2.4924790000    -1.1169990000 
 H        4.0158540000    -2.8295110000    -0.9268700000 
*
