! RI PBE def2-SVP def2-SVP/J NBO PAL2
% maxcore 2000
% output
    # printlevel mini
    print[ P_Basis ] 0
    print[ P_SCFInfo ] 1
    print[ P_SCFIterInfo ] 1
    print[ P_OrbEn ] 0
    print[ P_Cartesian ] 0
end
*xyz 0 1
 C        1.0793140000    -0.2574410000    -0.1156080000 
 C        2.5801090000    -0.0145400000    -0.0666190000 
 C        3.0284470000     0.5947930000     1.2313820000 
 N        4.3438110000     1.2211590000     1.3416920000 
 C        3.1424800000     2.0575010000     1.3905960000 
 C        2.8654640000     2.7575910000     2.6860490000 
 H        0.7814750000    -0.7144560000    -1.0617990000 
 H        0.5250940000     0.6778830000    -0.0042300000 
 H        0.7636150000    -0.9270280000     0.6888230000 
 H        2.8788650000     0.6462750000    -0.8895390000 
 H        3.1114110000    -0.9610800000    -0.2218020000 
 H        2.7593120000     0.0210440000     2.1174370000 
 H        4.7754850000     1.2746590000     0.4241680000 
 H        2.9199670000     2.6364610000     0.4951260000 
 H        3.1185450000     2.1092840000     3.5270120000 
 H        1.8106520000     3.0346230000     2.7654340000 
 H        3.4635430000     3.6685810000     2.7740660000 
*
