! RI PBE def2-SVP def2-SVP/J NBO PAL2
% maxcore 2000
% output
    # printlevel mini
    print[ P_Basis ] 0
    print[ P_SCFInfo ] 1
    print[ P_SCFIterInfo ] 1
    print[ P_OrbEn ] 0
    print[ P_Cartesian ] 0
end
*xyz 0 1
 C        0.9776380000     0.7440390000     0.5638190000 
 C        2.2983860000     0.1196060000     0.1470530000 
 C        2.9598630000     0.6550470000    -1.1089620000 
 N        4.2098220000     0.0328330000    -1.4643520000 
 C        2.1419360000     1.0918280000    -2.2848480000 
 C        2.8821340000     2.1083670000    -1.4614520000 
 H        0.6072810000     0.2742060000     1.4776520000 
 H        0.2078890000     0.6171580000    -0.2007450000 
 H        1.0783180000     1.8126360000     0.7666660000 
 H        2.1562100000    -0.9602540000     0.0101650000 
 H        3.0185130000     0.2236370000     0.9690330000 
 H        4.0804980000    -0.9628230000    -1.6077780000 
 H        4.8837870000     0.1404440000    -0.7141380000 
 H        1.0621840000     1.0694510000    -2.2087710000 
 H        2.5396610000     0.8569110000    -3.2635860000 
 H        2.2999430000     2.7692980000    -0.8318540000 
 H        3.7715450000     2.5486280000    -1.8932040000 
*
