! RI PBE def2-SVP def2-SVP/J NBO PAL2
% maxcore 2000
% output
    # printlevel mini
    print[ P_Basis ] 0
    print[ P_SCFInfo ] 1
    print[ P_SCFIterInfo ] 1
    print[ P_OrbEn ] 0
    print[ P_Cartesian ] 0
end
*xyz 0 1
 C        1.0723480000     0.3590370000     0.3428010000 
 C        2.5485790000     0.5436070000     0.0349610000 
 C        3.2663190000    -0.7719890000    -0.2338010000 
 C        4.7213970000    -0.5961810000    -0.5623610000 
 C        5.7416360000    -0.6435120000     0.5014630000 
 N        5.6425510000    -1.7237220000    -0.4797250000 
 H        0.5794180000     1.3157830000     0.5290110000 
 H        0.9286430000    -0.2659600000     1.2288170000 
 H        0.5534230000    -0.1255880000    -0.4889530000 
 H        3.0410840000     1.0571820000     0.8676610000 
 H        2.6632010000     1.1986440000    -0.8359750000 
 H        2.7685710000    -1.2936640000    -1.0611660000 
 H        3.1755730000    -1.4259250000     0.6436300000 
 H        4.9189960000     0.0476450000    -1.4171800000 
 H        5.3967230000    -0.8296870000     1.5148690000 
 H        6.6410040000    -0.0413000000     0.4311590000 
 H        5.1693060000    -2.5217590000    -0.0674900000 
*
