! RI PBE def2-SVP def2-SVP/J NBO PAL2
% maxcore 2000
% output
    # printlevel mini
    print[ P_Basis ] 0
    print[ P_SCFInfo ] 1
    print[ P_SCFIterInfo ] 1
    print[ P_OrbEn ] 0
    print[ P_Cartesian ] 0
end
*xyz 0 1
 C        3.8296070000     2.2485820000    -1.5616920000 
 C        3.7962760000     1.2662700000    -0.8731160000 
 C        3.7655190000     0.0663700000    -0.0499840000 
 C        4.4686650000    -1.1094630000    -0.6854380000 
 C        3.9873470000    -2.4750930000    -0.4113660000 
 N        3.8151490000    -1.8759900000    -1.7331910000 
 H        3.8594480000     3.1192750000    -2.1729280000 
 H        2.7230730000    -0.2032890000     0.1582820000 
 H        4.2268370000     0.2848050000     0.9200430000 
 H        5.5300900000    -0.9560420000    -0.8590510000 
 H        3.1182180000    -2.5798640000     0.2320010000 
 H        4.6860160000    -3.3033590000    -0.3689790000 
 H        2.8600440000    -1.5565130000    -1.8606730000 
*
