! RI PBE def2-SVP def2-SVP/J NBO PAL2
% maxcore 2000
% output
    # printlevel mini
    print[ P_Basis ] 0
    print[ P_SCFInfo ] 1
    print[ P_SCFIterInfo ] 1
    print[ P_OrbEn ] 0
    print[ P_Cartesian ] 0
end
*xyz 0 1
 C        0.8695760000    -0.0329180000     0.1255720000 
 C        2.3560270000    -0.0794100000     0.2113870000 
 C        3.1111860000    -1.0925620000    -0.2001670000 
 C        4.5848430000    -1.1673610000    -0.1063320000 
 C        5.3385080000    -0.4570230000     0.9405840000 
 N        5.2103760000    -1.9126830000     0.9966830000 
 H        0.4212370000     0.0895860000     1.1167670000 
 H        0.4648960000    -0.9424760000    -0.3220390000 
 H        0.5382400000     0.8212370000    -0.4734670000 
 H        2.8431460000     0.7944180000     0.6401680000 
 H        2.6268830000    -1.9570450000    -0.6544940000 
 H        5.0908680000    -1.3472520000    -1.0524890000 
 H        4.7803950000     0.1365010000     1.6569260000 
 H        6.3387750000    -0.0938230000     0.7313070000 
 H        4.4912250000    -2.1548990000     1.6722030000 
*
