! RI PBE def2-SVP def2-SVP/J NBO PAL2
% maxcore 2000
% output
    # printlevel mini
    print[ P_Basis ] 0
    print[ P_SCFInfo ] 1
    print[ P_SCFIterInfo ] 1
    print[ P_OrbEn ] 0
    print[ P_Cartesian ] 0
end
*xyz 0 1
 C        0.9922250000    -0.0178990000    -0.1527570000 
 C        2.4890750000    -0.0371800000    -0.1515930000 
 C        3.1962030000    -0.6153500000    -1.1177270000 
 C        3.1123330000     0.6477550000     1.0083890000 
 C        3.5382800000    -0.1369680000     2.1922720000 
 N        4.5193450000     0.5241060000     1.3392030000 
 H        0.5956880000    -0.4870120000     0.7530910000 
 H        0.5849570000    -0.5371470000    -1.0207680000 
 H        0.6188550000     1.0112260000    -0.1631140000 
 H        2.7085870000    -1.1251060000    -1.9407530000 
 H        4.2802980000    -0.5927620000    -1.1377990000 
 H        2.7113950000     1.6415540000     1.2007450000 
 H        3.4422530000    -1.2163610000     2.1256090000 
 H        3.4318360000     0.2794190000     3.1883360000 
 H        4.9621590000    -0.1593640000     0.7345550000 
*
