! RI PBE def2-SVP def2-SVP/J NBO PAL2
% maxcore 2000
% output
    # printlevel mini
    print[ P_Basis ] 0
    print[ P_SCFInfo ] 1
    print[ P_SCFIterInfo ] 1
    print[ P_OrbEn ] 0
    print[ P_Cartesian ] 0
end
*xyz 0 1
 C        1.0207220000    -0.2227940000     0.1767190000 
 C        2.5081520000     0.0763420000     0.0140090000 
 C        3.0214780000     0.9070330000     1.1815840000 
 C        3.2621700000    -1.2155050000    -0.2249290000 
 C        4.6691950000    -1.4335810000     0.1541750000 
 N        3.5949190000    -2.1351980000     0.8591500000 
 H        0.4400630000     0.6988680000     0.2635520000 
 H        0.8406230000    -0.8190810000     1.0760780000 
 H        0.6335170000    -0.7865050000    -0.6755320000 
 H        2.6332810000     0.6750550000    -0.8977260000 
 H        2.9414830000     0.3707440000     2.1328700000 
 H        2.4241050000     1.8156680000     1.2835450000 
 H        4.0610660000     1.2117190000     1.0477520000 
 H        2.9122990000    -1.7424560000    -1.1108080000 
 H        5.1937800000    -0.6401740000     0.6755000000 
 H        5.3023790000    -2.0651550000    -0.4599410000 
 H        3.4309870000    -1.6873780000     1.7552020000 
*
