! RI PBE def2-SVP def2-SVP/J NBO PAL2
% maxcore 2000
% output
    # printlevel mini
    print[ P_Basis ] 0
    print[ P_SCFInfo ] 1
    print[ P_SCFIterInfo ] 1
    print[ P_OrbEn ] 0
    print[ P_Cartesian ] 0
end
*xyz 0 1
 C        1.0287460000     0.0798890000    -0.0538780000 
 C        2.4785690000     0.0463680000    -0.0610090000 
 C        3.6819940000     0.0142380000    -0.0653020000 
 C        5.1165780000     0.0033490000    -0.0600990000 
 C        5.8542490000    -0.6879590000    -1.1462860000 
 N        5.8590430000     0.7640650000    -1.0745180000 
 H        0.6299400000    -0.0387850000    -1.0644760000 
 H        0.6570560000     1.0271030000     0.3451890000 
 H        0.6226320000    -0.7269540000     0.5615790000 
 H        5.5752530000     0.0387070000     0.9234500000 
 H        5.2599940000    -1.1751240000    -1.9116330000 
 H        6.8023400000    -1.1633660000    -0.9191660000 
 H        5.1996860000     1.1467590000    -1.7442610000 
*
