! RI PBE def2-SVP def2-SVP/J NBO PAL2
% maxcore 2000
% output
    # printlevel mini
    print[ P_Basis ] 0
    print[ P_SCFInfo ] 1
    print[ P_SCFIterInfo ] 1
    print[ P_OrbEn ] 0
    print[ P_Cartesian ] 0
end
*xyz 0 1
 C        0.9914670000    -0.0574450000     0.0388410000 
 C        2.3297450000    -0.0909820000     0.0155700000 
 C        3.0781450000    -1.0853100000    -0.6762860000 
 C        3.7254080000    -1.9152970000    -1.2538660000 
 C        3.0846890000     0.9109300000     0.7128240000 
 N        3.6883010000     1.7151220000     1.2724810000 
 H        0.4157390000    -0.8094160000    -0.4844600000 
 H        0.4665330000     0.7191420000     0.5792250000 
 H        4.2972830000    -2.6523330000    -1.7673380000 
*
