! RI PBE def2-SVP def2-SVP/J NBO PAL2
% maxcore 2000
% output
    # printlevel mini
    print[ P_Basis ] 0
    print[ P_SCFInfo ] 1
    print[ P_SCFIterInfo ] 1
    print[ P_OrbEn ] 0
    print[ P_Cartesian ] 0
end
*xyz 0 1
 C        1.1467040000     0.0026610000    -1.0281520000 
 C        2.3943650000    -0.0166540000    -0.5580070000 
 C        3.1350040000     1.1786800000    -0.2388860000 
 C        4.3902320000     1.1694550000     0.2344490000 
 C        5.1011170000     2.3561570000     0.5420530000 
 N        5.6962080000     3.3102140000     0.7982480000 
 H        0.6137060000    -0.9110740000    -1.2595800000 
 H        0.6221240000     0.9376890000    -1.1950770000 
 H        2.8986550000    -0.9666680000    -0.3992340000 
 H        2.6364160000     2.1314640000    -0.3954150000 
 H        4.9174480000     0.2354590000     0.4024020000 
*
