! RI PBE def2-SVP def2-SVP/J NBO PAL2
% maxcore 2000
% output
    # printlevel mini
    print[ P_Basis ] 0
    print[ P_SCFInfo ] 1
    print[ P_SCFIterInfo ] 1
    print[ P_OrbEn ] 0
    print[ P_Cartesian ] 0
end
*xyz 0 1
 C        1.5992890000     0.7977050000     0.4591640000 
 C        2.6635320000     0.0743500000     0.1323520000 
 C        3.2390630000    -0.9809770000     0.9804920000 
 C        2.5325830000    -1.7911060000     1.7751760000 
 C        4.6619920000    -1.1397850000     0.9062930000 
 N        5.8054780000    -1.2490880000     0.8239190000 
 H        1.2065740000     1.5472050000    -0.2166750000 
 H        1.0973060000     0.6778180000     1.4131120000 
 H        3.1796150000     0.2624910000    -0.8046320000 
 H        1.4521150000    -1.7247800000     1.8063590000 
 H        3.0167630000    -2.5365250000     2.3923400000 
*
