! RI PBE def2-SVP def2-SVP/J NBO PAL2
% maxcore 2000
% output
    # printlevel mini
    print[ P_Basis ] 0
    print[ P_SCFInfo ] 1
    print[ P_SCFIterInfo ] 1
    print[ P_OrbEn ] 0
    print[ P_Cartesian ] 0
end
*xyz 0 1
 C        0.9252550000    -0.0346150000    -0.0585170000 
 C        2.2560720000    -0.1192340000    -0.0567340000 
 C        2.9603430000    -1.3420990000    -0.0317330000 
 C        3.5920320000    -2.3727450000    -0.0106620000 
 C        4.2948470000    -3.5418530000     0.0132380000 
 N        4.8901690000    -4.5326450000     0.0334950000 
 H        0.4341540000     0.9300700000    -0.0782290000 
 H        0.3010710000    -0.9197230000    -0.0404700000 
 H        2.8643460000     0.7812530000    -0.0750880000 
*
