! RI PBE def2-SVP def2-SVP/J NBO PAL2
% maxcore 2000
% output
    # printlevel mini
    print[ P_Basis ] 0
    print[ P_SCFInfo ] 1
    print[ P_SCFIterInfo ] 1
    print[ P_OrbEn ] 0
    print[ P_Cartesian ] 0
end
*xyz 0 1
 C        1.5171060000     0.1593900000     1.0588340000 
 C        2.3255080000    -0.1391560000     0.0524980000 
 C        3.0506850000     0.8636910000    -0.7819600000 
 C        4.5717760000     0.6800100000    -0.6874300000 
 C        5.2961240000     1.6152880000    -1.5326730000 
 N        5.8497440000     2.3639390000    -2.2070160000 
 H        1.0126360000    -0.6118280000     1.6288570000 
 H        1.3247660000     1.1889890000     1.3448200000 
 H        2.4902140000    -1.1850400000    -0.2029910000 
 H        2.7853380000     1.8770170000    -0.4716920000 
 H        2.7544070000     0.7614170000    -1.8313220000 
 H        4.8525320000    -0.3361180000    -0.9811460000 
 H        4.9048540000     0.8152020000     0.3454230000 
*
