! RI PBE def2-SVP def2-SVP/J NBO PAL2
% maxcore 2000
% output
    # printlevel mini
    print[ P_Basis ] 0
    print[ P_SCFInfo ] 1
    print[ P_SCFIterInfo ] 1
    print[ P_OrbEn ] 0
    print[ P_Cartesian ] 0
end
*xyz 0 1
 C        1.0450090000    -0.0313000000     0.0827000000 
 C        2.2506880000    -0.0313000000     0.0827000000 
 C        3.6060380000    -0.0313000000     0.0827000000 
 C        4.8173320000    -0.0313000000     0.0827000000 
 C        6.1787980000    -0.0313000000     0.0827000000 
 N        7.3352640000    -0.0313000000     0.0827000000 
 H       -0.0203380000    -0.0313000000     0.0827000000 
*
