! RI PBE def2-SVP def2-SVP/J NBO PAL2
% maxcore 2000
% output
    # printlevel mini
    print[ P_Basis ] 0
    print[ P_SCFInfo ] 1
    print[ P_SCFIterInfo ] 1
    print[ P_OrbEn ] 0
    print[ P_Cartesian ] 0
end
*xyz 0 1
 C        1.0152150000     0.0818390000    -0.0488910000 
 C        2.2146920000     0.0706990000    -0.0694480000 
 C        3.6662640000     0.0716550000    -0.0685910000 
 C        4.2283590000     0.7356740000     1.1983180000 
 C        5.6820450000     0.7400660000     1.2059080000 
 N        6.8313620000     0.7332290000     1.1922810000 
 H       -0.0492740000     0.0862530000    -0.0390790000 
 H        4.0372310000     0.5992750000    -0.9518360000 
 H        4.0377270000    -0.9546840000    -0.1375810000 
 H        3.8727310000     0.2090490000     2.0872620000 
 H        3.8722490000     1.7661550000     1.2713570000 
*
