! RI PBE def2-SVP def2-SVP/J NBO PAL2
% maxcore 2000
% output
    # printlevel mini
    print[ P_Basis ] 0
    print[ P_SCFInfo ] 1
    print[ P_SCFIterInfo ] 1
    print[ P_OrbEn ] 0
    print[ P_Cartesian ] 0
end
*xyz 0 1
 C        0.7005490000     0.1468640000    -1.4392690000 
 C        2.1866040000     0.2589830000    -1.4193310000 
 C        3.0322600000    -0.7646010000    -1.4168070000 
 C        4.5201270000    -0.6561330000    -1.3984430000 
 C        5.1724240000    -1.2790860000    -2.6257150000 
 N        6.6219440000    -1.2422780000    -2.5066250000 
 H        0.2768690000     0.6514070000    -2.3136830000 
 H        0.2557400000     0.6221160000    -0.5589050000 
 H        0.3795710000    -0.8965880000    -1.4603520000 
 H        2.5954590000     1.2691600000    -1.4000090000 
 H        2.6248210000    -1.7762360000    -1.4358200000 
 H        4.9281410000    -1.1598310000    -0.5142660000 
 H        4.8114630000     0.3980950000    -1.3246430000 
 H        4.7830870000    -0.7769700000    -3.5252150000 
 H        4.8670760000    -2.3284870000    -2.6970020000 
 H        6.9480400000    -0.2829840000    -2.4909380000 
 H        7.0578150000    -1.6854200000    -3.3054770000 
*
