! RI PBE def2-SVP def2-SVP/J NBO PAL2
% maxcore 2000
% output
    # printlevel mini
    print[ P_Basis ] 0
    print[ P_SCFInfo ] 1
    print[ P_SCFIterInfo ] 1
    print[ P_OrbEn ] 0
    print[ P_Cartesian ] 0
end
*xyz 0 1
 C        1.0046080000     0.1385270000    -0.1260800000 
 C        2.4879220000     0.0833360000     0.0339990000 
 C        3.1334360000    -0.2988420000     1.1424380000 
 C        2.4868570000    -0.7393160000     2.4199420000 
 C        4.5631780000    -0.2961290000     1.1345770000 
 N        5.7155340000    -0.3059990000     1.1632090000 
 H        0.7336150000     0.4824720000    -1.1236350000 
 H        0.5461410000     0.8202080000     0.5962730000 
 H        0.5461440000    -0.8434950000     0.0226480000 
 H        3.0925570000     0.3771550000    -0.8181630000 
 H        1.4008890000    -0.7126220000     2.3425200000 
 H        2.7922850000    -0.0955720000     3.2489160000 
 H        2.7922850000    -1.7571750000     2.6760070000 
*
