! RI PBE def2-SVP def2-SVP/J NBO PAL2
% maxcore 2000
% output
    # printlevel mini
    print[ P_Basis ] 0
    print[ P_SCFInfo ] 1
    print[ P_SCFIterInfo ] 1
    print[ P_OrbEn ] 0
    print[ P_Cartesian ] 0
end
*xyz 0 1
 C        0.8348390000    -0.2404890000     0.4396210000 
 C        2.3136900000    -0.2999390000     0.6125100000 
 C        3.1281070000     0.7462230000     0.6025100000 
 C        4.6158790000     0.6871620000     0.7580440000 
 C        5.3100600000     1.1559180000    -0.5210940000 
 N        5.0062260000     1.4447090000     1.9472560000 
 H        0.5131170000    -0.8281330000    -0.4262770000 
 H        0.4895320000     0.7860110000     0.3016260000 
 H        0.3204680000    -0.6596090000     1.3102890000 
 H        2.7444180000    -1.2893540000     0.7626760000 
 H        2.7084840000     1.7435870000     0.4554330000 
 H        4.8937840000    -0.3574640000     0.9394880000 
 H        5.0292620000     2.1878160000    -0.7545670000 
 H        5.0387780000     0.5301670000    -1.3752060000 
 H        6.3973050000     1.1215050000    -0.4040520000 
 H        4.6662960000     2.3979140000     1.8743420000 
 H        6.0170440000     1.5044670000     2.0028910000 
*
