! RI PBE def2-SVP def2-SVP/J NBO PAL2
% maxcore 2000
% output
    # printlevel mini
    print[ P_Basis ] 0
    print[ P_SCFInfo ] 1
    print[ P_SCFIterInfo ] 1
    print[ P_OrbEn ] 0
    print[ P_Cartesian ] 0
end
*xyz 0 1
 C        0.8939830000    -0.0165830000    -0.1474810000 
 C        2.3782260000    -0.1143730000    -0.2019260000 
 C        3.1499440000    -0.5238130000     0.7951340000 
 C        4.6449700000    -0.6290650000     0.7019470000 
 C        5.3252880000     0.1596570000     1.7226760000 
 N        5.8515420000     0.7786930000     2.5358580000 
 H        0.5647790000     1.0095200000    -0.3378470000 
 H        0.5063020000    -0.3257290000     0.8245620000 
 H        0.4316110000    -0.6421990000    -0.9171680000 
 H        2.8494700000     0.1781810000    -1.1396600000 
 H        2.7074210000    -0.8116600000     1.7455710000 
 H        4.9927820000    -0.2986450000    -0.2805420000 
 H        4.9683810000    -1.6695750000     0.8234850000 
*
