! RI PBE def2-SVP def2-SVP/J NBO PAL2
% maxcore 2000
% output
    # printlevel mini
    print[ P_Basis ] 0
    print[ P_SCFInfo ] 1
    print[ P_SCFIterInfo ] 1
    print[ P_OrbEn ] 0
    print[ P_Cartesian ] 0
end
*xyz 0 1
 C        0.9988010000    -0.1143860000     0.1936120000 
 C        2.4577150000    -0.1394020000    -0.1228210000 
 C        2.9764510000    -0.8087990000    -1.1442330000 
 C        3.3497030000     0.6768430000     0.7842740000 
 C        3.2584740000     0.2704630000     2.1812070000 
 N        3.1757360000    -0.0557160000     3.2804040000 
 H        0.4308690000    -0.7201130000    -0.5122490000 
 H        0.6102480000     0.9091300000     0.1623450000 
 H        0.8125710000    -0.4915540000     1.2038380000 
 H        2.3470030000    -1.3794710000    -1.8174440000 
 H        4.0422860000    -0.8114330000    -1.3433010000 
 H        3.0689700000     1.7357940000     0.7321140000 
 H        4.3926640000     0.6018620000     0.4687340000 
*
