! RI PBE def2-SVP def2-SVP/J NBO PAL2
% maxcore 2000
% output
    # printlevel mini
    print[ P_Basis ] 0
    print[ P_SCFInfo ] 1
    print[ P_SCFIterInfo ] 1
    print[ P_OrbEn ] 0
    print[ P_Cartesian ] 0
end
*xyz 0 1
 C        0.9307920000     0.2486300000     0.1826830000 
 C        2.4283630000     0.0153950000    -0.0545220000 
 C        2.7280410000    -1.4358460000    -0.3209840000 
 C        3.3151440000    -1.9289290000    -1.3991420000 
 C        2.9186690000     0.8822110000    -1.1208390000 
 N        3.2915370000     1.5663570000    -1.9661090000 
 H        0.5888970000    -0.3799080000     1.0069410000 
 H        0.3590690000    -0.0095260000    -0.7094450000 
 H        0.7336300000     1.2910150000     0.4356890000 
 H        2.9663440000     0.3106430000     0.8561730000 
 H        2.4023020000    -2.1014500000     0.4748250000 
 H        3.6518240000    -1.2903260000    -2.2093520000 
 H        3.4803870000    -2.9944670000    -1.5028190000 
*
