! RI PBE def2-SVP def2-SVP/J NBO PAL2
% maxcore 2000
% output
    # printlevel mini
    print[ P_Basis ] 0
    print[ P_SCFInfo ] 1
    print[ P_SCFIterInfo ] 1
    print[ P_OrbEn ] 0
    print[ P_Cartesian ] 0
end
*xyz 0 1
 C        0.9402240000    -0.0322980000    -0.0861950000 
 C        2.4719320000    -0.0560400000    -0.0828430000 
 C        2.9937270000    -0.5616030000     1.2657590000 
 C        2.9940050000    -0.9386230000    -1.2210250000 
 C        2.9612410000     1.3115720000    -0.2900570000 
 N        3.3450310000     2.3837250000    -0.4526330000 
 H        0.5641750000    -1.0466430000     0.0669040000 
 H        0.5544080000     0.3397540000    -1.0368190000 
 H        0.5553800000     0.6034700000     0.7130030000 
 H        2.6364260000    -1.5807420000     1.4315670000 
 H        2.6392390000     0.0665060000     2.0847460000 
 H        4.0847850000    -0.5702040000     1.2865490000 
 H        2.6356160000    -1.9608440000    -1.0782830000 
 H        4.0851080000    -0.9543360000    -1.2377830000 
 H        2.6406930000    -0.5807950000    -2.1895990000 
*
