! RI PBE def2-SVP def2-SVP/J NBO PAL2
% maxcore 2000
% output
    # printlevel mini
    print[ P_Basis ] 0
    print[ P_SCFInfo ] 1
    print[ P_SCFIterInfo ] 1
    print[ P_OrbEn ] 0
    print[ P_Cartesian ] 0
end
*xyz 0 1
 C        0.9236170000    -0.1122570000    -0.1178110000 
 C        2.4388610000    -0.0455640000    -0.0063930000 
 C        2.8755560000     0.7981960000     1.1806510000 
 C        3.0083800000    -1.4690130000     0.0795160000 
 C        4.4620380000    -1.5052900000     0.0797220000 
 N        5.6118810000    -1.5145420000     0.0740740000 
 H        0.4989670000     0.8894500000    -0.2112670000 
 H        0.4869380000    -0.5749330000     0.7728030000 
 H        0.6074100000    -0.6930030000    -0.9880950000 
 H        2.8361910000     0.4095160000    -0.9206270000 
 H        2.4911890000     0.3796890000     2.1163690000 
 H        2.4925720000     1.8170580000     1.0909750000 
 H        3.9636380000     0.8528200000     1.2573420000 
 H        2.6547860000    -2.0716540000    -0.7625880000 
 H        2.6529670000    -1.9585730000     0.9930310000 
*
