! RI PBE def2-SVP def2-SVP/J NBO PAL2
% maxcore 2000
% output
    # printlevel mini
    print[ P_Basis ] 0
    print[ P_SCFInfo ] 1
    print[ P_SCFIterInfo ] 1
    print[ P_OrbEn ] 0
    print[ P_Cartesian ] 0
end
*xyz 0 1
 C        1.0324310000     0.0700050000     0.0215030000 
 C        2.5659780000     0.0740730000    -0.0579890000 
 C        3.0720790000    -0.9414020000    -0.9770200000 
 C        3.4634570000    -1.7917780000    -1.7247520000 
 C        3.0610200000     1.4034770000    -0.4272480000 
 N        3.4219680000     2.4606900000    -0.6951990000 
 H        0.6908010000    -0.9140090000     0.3422400000 
 H        0.6015300000     0.2907890000    -0.9546430000 
 H        0.6924720000     0.8195070000     0.7366290000 
 H        2.9698230000    -0.1391450000     0.9397340000 
 H        3.8181400000    -2.5420080000    -2.3918530000 
*
