! RI PBE def2-SVP def2-SVP/J NBO PAL2
% maxcore 2000
% output
    # printlevel mini
    print[ P_Basis ] 0
    print[ P_SCFInfo ] 1
    print[ P_SCFIterInfo ] 1
    print[ P_OrbEn ] 0
    print[ P_Cartesian ] 0
end
*xyz 0 1
 C        1.3820390000     0.3687750000     0.1249680000 
 C        2.7642340000     0.0689870000    -0.1988820000 
 C        3.9115690000    -0.1640000000    -0.4725740000 
 C        5.3017290000    -0.4861910000    -0.7877970000 
 C        5.5236850000    -2.0003930000    -0.7483460000 
 N        6.1919910000     0.2784110000     0.0830360000 
 H        0.8602080000    -0.5178880000     0.4937180000 
 H        0.8444250000     0.7340190000    -0.7537340000 
 H        1.3215740000     1.1397470000     0.8972530000 
 H        5.4955090000    -0.1427270000    -1.8120890000 
 H        5.3309200000    -2.3855810000     0.2558270000 
 H        4.8600640000    -2.5165290000    -1.4457930000 
 H        6.5570150000    -2.2346550000    -1.0186040000 
 H        7.1518030000    -0.0027590000    -0.0821680000 
 H        5.9810350000     0.0705850000     1.0524750000 
*
