! RI PBE def2-SVP def2-SVP/J NBO PAL2
% maxcore 2000
% output
    # printlevel mini
    print[ P_Basis ] 0
    print[ P_SCFInfo ] 1
    print[ P_SCFIterInfo ] 1
    print[ P_OrbEn ] 0
    print[ P_Cartesian ] 0
end
*xyz 0 1
 C        2.3491330000    -1.2561960000     0.8067550000 
 C        3.1073880000    -0.2935000000    -0.1007870000 
 C        3.2058220000     1.0813620000     0.4724570000 
 C        4.3354950000     1.7286280000     0.7326900000 
 C        4.4122070000     3.1037620000     1.3071850000 
 N        5.2252640000     3.1030010000     2.5169520000 
 H        2.2602470000    -2.2439720000     0.3486090000 
 H        1.3386150000    -0.8915680000     1.0106170000 
 H        2.8591640000    -1.3715610000     1.7660070000 
 H        2.5945200000    -0.2432640000    -1.0694930000 
 H        4.1122000000    -0.6774200000    -0.3010640000 
 H        2.2592820000     1.5766830000     0.6945280000 
 H        5.2925340000     1.2469460000     0.5376150000 
 H        3.3913570000     3.4921720000     1.4463000000 
 H        4.9060450000     3.7663010000     0.5859350000 
 H        4.7740730000     2.5542750000     3.2387140000 
 H        5.3359750000     4.0428330000     2.8759910000 
*
