! RI PBE def2-SVP def2-SVP/J NBO PAL2
% maxcore 2000
% output
    # printlevel mini
    print[ P_Basis ] 0
    print[ P_SCFInfo ] 1
    print[ P_SCFIterInfo ] 1
    print[ P_OrbEn ] 0
    print[ P_Cartesian ] 0
end
*xyz 0 1
 C        1.1311190000    -0.4043570000     0.1165820000 
 C        2.5657550000     0.1079170000     0.1486030000 
 C        3.0331560000     0.6336700000    -1.1797560000 
 C        3.4065160000     1.8925030000    -1.4065350000 
 C        3.0594860000    -0.3098510000    -2.2577200000 
 N        3.0691650000    -1.0969100000    -3.0990670000 
 H        0.8430780000    -0.7937300000     1.0948090000 
 H        1.0156380000    -1.2093580000    -0.6125180000 
 H        0.4360720000     0.3945530000    -0.1506350000 
 H        3.2343700000    -0.7024720000     0.4583920000 
 H        2.6703140000     0.9079350000     0.8855230000 
 H        3.3941610000     2.6215810000    -0.6046100000 
 H        3.7316600000     2.2217270000    -2.3852790000 
*
