! RI PBE def2-SVP def2-SVP/J NBO PAL2
% maxcore 2000
% output
    # printlevel mini
    print[ P_Basis ] 0
    print[ P_SCFInfo ] 1
    print[ P_SCFIterInfo ] 1
    print[ P_OrbEn ] 0
    print[ P_Cartesian ] 0
end
*xyz 0 1
 C        1.4320030000    -0.1132810000     0.3854400000 
 C        2.8620540000     0.3999320000     0.3385380000 
 C        3.1977410000     1.2366660000    -0.8935730000 
 C        2.3490500000     2.4953610000    -0.9968500000 
 C        4.6849900000     1.5781800000    -0.9035150000 
 N        5.0824840000     2.2172370000    -2.1490510000 
 H        1.2753840000    -0.7597380000     1.2521490000 
 H        1.1938280000    -0.6961260000    -0.5093480000 
 H        0.7088060000     0.7022350000     0.4510960000 
 H        3.5490860000    -0.4531330000     0.3815410000 
 H        3.0657010000     0.9977690000     1.2362360000 
 H        3.0012510000     0.6153020000    -1.7809370000 
 H        2.4301160000     3.0866910000    -0.0780590000 
 H        1.2934980000     2.2641910000    -1.1526620000 
 H        2.6915730000     3.1151270000    -1.8266020000 
 H        5.2570790000     0.6632130000    -0.6804220000 
 H        4.8883960000     2.2801680000    -0.0861970000 
 H        5.0455010000     1.5525970000    -2.9127270000 
 H        6.0362480000     2.5500000000    -2.0944660000 
*
