! RI PBE def2-SVP def2-SVP/J NBO PAL2
% maxcore 2000
% output
    # printlevel mini
    print[ P_Basis ] 0
    print[ P_SCFInfo ] 1
    print[ P_SCFIterInfo ] 1
    print[ P_OrbEn ] 0
    print[ P_Cartesian ] 0
end
*xyz 0 1
 C        3.6523280000    -0.6094330000    -0.9692780000 
 C        2.8831040000     0.0872650000     0.1413720000 
 C        3.1869100000    -0.3897610000     1.5679480000 
 C        2.4122460000     0.4830520000     2.5472990000 
 C        2.7708630000    -1.8510270000     1.7578200000 
 N        4.6118070000    -0.1768880000     1.8321640000 
 H        3.3647270000    -0.2064760000    -1.9430410000 
 H        3.4600430000    -1.6848330000    -0.9952900000 
 H        4.7299370000    -0.4567620000    -0.8684590000 
 H        1.8076510000    -0.0275470000    -0.0334850000 
 H        3.0973330000     1.1598260000     0.1038570000 
 H        1.3362210000     0.4017490000     2.3766560000 
 H        2.7061200000     1.5291000000     2.4392250000 
 H        2.6095940000     0.1784910000     3.5799330000 
 H        1.7093790000    -2.0013680000     1.5388760000 
 H        2.9469380000    -2.1638230000     2.7911430000 
 H        3.3455790000    -2.5170590000     1.1092650000 
 H        4.8148830000    -0.3863050000     2.8033850000 
 H        5.1720170000    -0.8159810000     1.2799290000 
*
