! RI PBE def2-SVP def2-SVP/J NBO PAL2
% maxcore 2000
% output
    # printlevel mini
    print[ P_Basis ] 0
    print[ P_SCFInfo ] 1
    print[ P_SCFIterInfo ] 1
    print[ P_OrbEn ] 0
    print[ P_Cartesian ] 0
end
*xyz 0 1
 C        2.7945440000     0.7637840000     1.1290340000 
 C        2.3987210000     0.0099190000    -0.1270420000 
 C        2.9434080000    -1.4219590000    -0.1895600000 
 C        2.4443480000    -2.1800130000    -1.4188580000 
 C        4.4042810000    -1.4190360000    -0.1556080000 
 N        5.5543890000    -1.4074660000    -0.1439370000 
 H        2.3751280000     1.7716400000     1.1252760000 
 H        3.8801650000     0.8534350000     1.2117000000 
 H        2.4314420000     0.2559240000     2.0267810000 
 H        2.7382620000     0.5504380000    -1.0162150000 
 H        1.3086440000    -0.0574470000    -0.1994160000 
 H        2.6166350000    -1.9544200000     0.7122700000 
 H        2.7587580000    -1.6772150000    -2.3354620000 
 H        1.3535440000    -2.2215600000    -1.4058360000 
 H        2.8297800000    -3.2000630000    -1.4404550000 
*
