! RI PBE def2-SVP def2-SVP/J NBO PAL2
% maxcore 2000
% output
    # printlevel mini
    print[ P_Basis ] 0
    print[ P_SCFInfo ] 1
    print[ P_SCFIterInfo ] 1
    print[ P_OrbEn ] 0
    print[ P_Cartesian ] 0
end
*xyz 0 1
 C        1.0571300000     0.0167750000    -0.0221440000 
 C        2.5817530000     0.0013420000     0.0564760000 
 C        3.0810290000    -0.0847750000     1.4204480000 
 C        3.4818250000    -0.1665530000     2.5515710000 
 C        3.9540760000    -0.2423430000     3.9270270000 
 N        3.1458800000    -1.1636750000     4.7199500000 
 H        0.7289290000     0.0810210000    -1.0617630000 
 H        0.6489300000     0.8712480000     0.5205080000 
 H        0.6375670000    -0.8908750000     0.4150050000 
 H        2.9851290000     0.9050880000    -0.4130330000 
 H        2.9732900000    -0.8423910000    -0.5219290000 
 H        3.9898760000     0.7812600000     4.3328260000 
 H        4.9861050000    -0.6100190000     3.9264120000 
 H        2.1745340000    -0.8790120000     4.6902480000 
 H        3.4399660000    -1.1300920000     5.6885800000 
*
