! RI PBE def2-SVP def2-SVP/J NBO PAL2
% maxcore 2000
% output
    # printlevel mini
    print[ P_Basis ] 0
    print[ P_SCFInfo ] 1
    print[ P_SCFIterInfo ] 1
    print[ P_OrbEn ] 0
    print[ P_Cartesian ] 0
end
*xyz 0 1
 C        1.1200040000     0.1915100000    -0.0570330000 
 C        2.6364880000     0.1434160000     0.0212500000 
 C        3.1659970000    -1.2394150000     0.3635290000 
 C        4.6862980000    -1.3375210000     0.4023690000 
 C        5.1369680000    -2.6784560000     0.9708850000 
 N        5.2251760000    -1.0520510000    -0.9239010000 
 H        0.7625740000     1.1964590000    -0.2937720000 
 H        0.6617120000    -0.1083180000     0.8902470000 
 H        0.7430280000    -0.4836590000    -0.8308970000 
 H        2.9876380000     0.8553780000     0.7776350000 
 H        3.0765550000     0.4660640000    -0.9258360000 
 H        2.7891740000    -1.9692620000    -0.3674680000 
 H        2.7672040000    -1.5552470000     1.3346460000 
 H        5.0554530000    -0.5424380000     1.0633000000 
 H        4.7662170000    -3.5017550000     0.3511920000 
 H        4.7650010000    -2.8315850000     1.9881770000 
 H        6.2280560000    -2.7454370000     0.9982150000 
 H        4.9494360000    -1.7853350000    -1.5694190000 
 H        6.2380000000    -1.0536370000    -0.9015110000 
*
