! RI PBE def2-SVP def2-SVP/J NBO PAL2
% maxcore 2000
% output
    # printlevel mini
    print[ P_Basis ] 0
    print[ P_SCFInfo ] 1
    print[ P_SCFIterInfo ] 1
    print[ P_OrbEn ] 0
    print[ P_Cartesian ] 0
end
*xyz 0 1
 C        0.9411050000    -0.1588500000     0.1085930000 
 C        2.4594170000    -0.1142550000     0.0778780000 
 C        3.0036350000     1.1995680000    -0.4593990000 
 C        4.5186470000     1.2518030000    -0.4887260000 
 N        4.9998780000     2.5010940000    -1.0378400000 
 C        6.4406660000     2.6098800000    -1.0315420000 
 H        0.5749640000    -1.1115280000     0.4981890000 
 H        0.5225770000    -0.0264110000    -0.8930130000 
 H        0.5358840000     0.6360970000     0.7411920000 
 H        2.8377780000    -0.9389210000    -0.5371820000 
 H        2.8517990000    -0.2853180000     1.0870290000 
 H        2.6254860000     2.0253210000     0.1582020000 
 H        2.6257550000     1.3762760000    -1.4722350000 
 H        4.8990930000     0.4389920000    -1.1199320000 
 H        4.9124460000     1.0585090000     0.5276010000 
 H        4.5944210000     3.2728350000    -0.5223340000 
 H        6.8669650000     1.8597120000    -1.7039990000 
 H        6.8989610000     2.4604410000    -0.0387610000 
 H        6.7414140000     3.5918470000    -1.4025400000 
*
