! RI PBE def2-SVP def2-SVP/J NBO PAL2
% maxcore 2000
% output
    # printlevel mini
    print[ P_Basis ] 0
    print[ P_SCFInfo ] 1
    print[ P_SCFIterInfo ] 1
    print[ P_OrbEn ] 0
    print[ P_Cartesian ] 0
end
*xyz 0 1
 C        1.0540130000    -0.7820140000    -0.2360520000 
 C        2.0572000000     0.3265340000    -0.4985850000 
 C        2.9288390000     0.0901230000    -1.7284310000 
 C        4.0583560000     1.1147730000    -1.7989420000 
 N        2.0890530000     0.0487990000    -2.9165340000 
 C        2.7237170000    -0.4587950000    -4.1115100000 
 H        0.4151770000    -0.5456250000     0.6181260000 
 H        1.5626140000    -1.7257680000    -0.0183710000 
 H        0.4204750000    -0.9400400000    -1.1100020000 
 H        2.7092920000     0.4570960000     0.3715460000 
 H        1.5330610000     1.2829700000    -0.6274020000 
 H        3.3756920000    -0.9097380000    -1.6381910000 
 H        3.6502430000     2.1301870000    -1.8407210000 
 H        4.7048750000     1.0522770000    -0.9196550000 
 H        4.6851350000     0.9667450000    -2.6809570000 
 H        1.7027040000     0.9701480000    -3.0880080000 
 H        3.0251670000    -1.4973850000    -3.9474030000 
 H        3.6153180000     0.0966080000    -4.4428920000 
 H        2.0049690000    -0.4550840000    -4.9339170000 
*
