! RI PBE def2-SVP def2-SVP/J NBO PAL2
% maxcore 2000
% output
    # printlevel mini
    print[ P_Basis ] 0
    print[ P_SCFInfo ] 1
    print[ P_SCFIterInfo ] 1
    print[ P_OrbEn ] 0
    print[ P_Cartesian ] 0
end
*xyz 0 1
 C        1.1080030000     0.2872780000     0.3835860000 
 C        2.5279610000     0.0311890000    -0.0122030000 
 C        3.1370740000    -1.1239540000     0.2509750000 
 C        3.2269280000     1.1203240000    -0.7535310000 
 N        4.6001820000     1.0815610000    -0.7211290000 
 N        2.6473380000     2.0339230000    -1.4309150000 
 H        0.7229030000    -0.5330160000     0.9893610000 
 H        0.4620890000     0.3798720000    -0.4952390000 
 H        1.0136790000     1.2171250000     0.9504220000 
 H        2.6233060000    -1.9181630000     0.7811140000 
 H        4.1470260000    -1.3266810000    -0.0837040000 
 H        5.0274500000     0.7441060000     0.1241630000 
 H        5.0352490000     1.8957820000    -1.1253130000 
 H        1.6418120000     1.9003740000    -1.4343870000 
*
