! RI PBE def2-SVP def2-SVP/J NBO PAL2
% maxcore 2000
% output
    # printlevel mini
    print[ P_Basis ] 0
    print[ P_SCFInfo ] 1
    print[ P_SCFIterInfo ] 1
    print[ P_OrbEn ] 0
    print[ P_Cartesian ] 0
end
*xyz 0 1
 C        1.1310270000    -0.0672010000     0.0333140000 
 C        2.6281670000    -0.0556330000     0.0928800000 
 C        3.3059720000    -1.2730920000    -0.3657170000 
 C        4.4548260000    -1.7944900000     0.0696870000 
 N        3.1820510000     1.0281410000     0.4967960000 
 N        4.5279950000     1.1184330000     0.6074280000 
 H        0.7798220000    -0.2638460000    -0.9851770000 
 H        0.7417280000     0.8956230000     0.3610290000 
 H        0.7155530000    -0.8530760000     0.6719900000 
 H        2.7637830000    -1.8190840000    -1.1366070000 
 H        5.0240470000    -1.3606000000     0.8828380000 
 H        4.8276250000    -2.7223110000    -0.3486030000 
 H        4.8093220000     2.0841770000     0.5378380000 
 H        5.0636030000     0.5089590000    -0.0078850000 
*
