! RI PBE def2-SVP def2-SVP/J NBO PAL2
% maxcore 2000
% output
    # printlevel mini
    print[ P_Basis ] 0
    print[ P_SCFInfo ] 1
    print[ P_SCFIterInfo ] 1
    print[ P_OrbEn ] 0
    print[ P_Cartesian ] 0
end
*xyz 0 1
 C        0.8595040000    -0.0082960000     0.0344990000 
 C        2.3811540000     0.0411170000    -0.0818970000 
 C        3.0423030000    -0.3484140000     1.2375200000 
 C        2.8516400000    -0.8453550000    -1.1897230000 
 N        3.4477010000    -0.3833770000    -2.2073420000 
 N        3.7799360000    -1.2400180000    -3.2143090000 
 H        0.5114440000     0.6434890000     0.8400550000 
 H        0.5171270000    -1.0234310000     0.2592700000 
 H        0.3817180000     0.3100610000    -0.8942260000 
 H        2.6842300000     1.0584280000    -0.3471280000 
 H        2.7920400000    -1.3783280000     1.5114890000 
 H        2.7010240000     0.3003020000     2.0483050000 
 H        4.1298740000    -0.2717610000     1.1741190000 
 H        2.6475880000    -1.9233310000    -1.0909210000 
 H        4.5741870000    -0.8873680000    -3.7245760000 
 H        3.9134410000    -2.2060070000    -2.9271470000 
*
