! RI PBE def2-SVP def2-SVP/J NBO PAL2
% maxcore 2000
% output
    # printlevel mini
    print[ P_Basis ] 0
    print[ P_SCFInfo ] 1
    print[ P_SCFIterInfo ] 1
    print[ P_OrbEn ] 0
    print[ P_Cartesian ] 0
end
*xyz 0 1
 C        1.0207470000    -0.0482720000     0.0743610000 
 C        2.5408570000    -0.1611010000     0.0335380000 
 C        3.1824830000     0.5276780000     1.2331660000 
 C        2.9708720000    -1.6181900000    -0.0441440000 
 N        3.6624510000    -1.9513490000    -1.1672840000 
 N        2.7370130000    -2.5113420000     0.8357090000 
 H        0.7154440000     1.0008240000     0.0896320000 
 H        0.6190670000    -0.5262330000     0.9711760000 
 H        0.5613800000    -0.5272570000    -0.7927110000 
 H        2.8917340000     0.3458490000    -0.8730150000 
 H        2.8520520000     0.0683920000     2.1680090000 
 H        2.9029420000     1.5836300000     1.2625380000 
 H        4.2717510000     0.4614530000     1.1961500000 
 H        3.8664110000    -1.2802920000    -1.8798730000 
 H        3.9736540000    -2.9004040000    -1.2746590000 
 H        2.2152420000    -2.1201640000     1.6141070000 
*
