! RI PBE def2-SVP def2-SVP/J NBO PAL2
% maxcore 2000
% output
    # printlevel mini
    print[ P_Basis ] 0
    print[ P_SCFInfo ] 1
    print[ P_SCFIterInfo ] 1
    print[ P_OrbEn ] 0
    print[ P_Cartesian ] 0
end
*xyz 0 1
 C        1.0376170000    -0.0429720000     0.0298500000 
 C        2.4843930000    -0.0820290000    -0.0261520000 
 C        3.6874080000    -0.1371330000    -0.0814940000 
 C        5.1020510000    -0.1183910000    -0.1159960000 
 N        5.7808920000    -1.1434540000    -0.4668390000 
 N        7.1186430000    -1.0195020000    -0.5343570000 
 H        0.6002530000    -0.4453140000    -0.8875740000 
 H        0.6784960000     0.9817080000     0.1530240000 
 H        0.6601340000    -0.6347250000     0.8682330000 
 H        5.5967290000     0.8191200000     0.1671440000 
 H        7.5806050000    -1.9096650000    -0.4498540000 
 H        7.5395990000    -0.2854430000     0.0274050000 
*
