! RI PBE def2-SVP def2-SVP/J NBO PAL2
% maxcore 2000
% output
    # printlevel mini
    print[ P_Basis ] 0
    print[ P_SCFInfo ] 1
    print[ P_SCFIterInfo ] 1
    print[ P_OrbEn ] 0
    print[ P_Cartesian ] 0
end
*xyz 0 1
 C        2.0113520000    -0.1942770000     1.4478820000 
 C        2.5399350000     0.0261950000     0.0341220000 
 C        3.0153200000    -1.2336390000    -0.6218590000 
 C        2.0198900000    -2.3028400000    -0.9592790000 
 N        4.2605860000    -1.3367560000    -0.8745170000 
 N        4.6969960000    -2.4645720000    -1.5154030000 
 H        1.6540580000     0.7428540000     1.8807260000 
 H        2.7966070000    -0.5888310000     2.0970390000 
 H        1.1781330000    -0.9020340000     1.4631360000 
 H        3.3744960000     0.7297760000     0.0486560000 
 H        1.7472070000     0.4716890000    -0.5805960000 
 H        0.9994090000    -1.9775860000    -0.7580950000 
 H        2.1910560000    -3.2193240000    -0.3805340000 
 H        2.0966650000    -2.5732460000    -2.0178440000 
 H        5.6895520000    -2.5667760000    -1.3725170000 
 H        4.2047480000    -3.3192330000    -1.2746960000 
*
