! RI PBE def2-SVP def2-SVP/J NBO PAL2
% maxcore 2000
% output
    # printlevel mini
    print[ P_Basis ] 0
    print[ P_SCFInfo ] 1
    print[ P_SCFIterInfo ] 1
    print[ P_OrbEn ] 0
    print[ P_Cartesian ] 0
end
*xyz 0 1
 C        3.5172160000     0.4192140000    -1.4798460000 
 C        3.0495830000    -0.2425080000    -0.1948340000 
 C        3.2529340000     0.6338650000     1.0427930000 
 C        4.6891920000     0.8704670000     1.3607600000 
 N        5.1914490000     2.0342970000     1.3582490000 
 N        6.5287660000     2.1670090000     1.5833110000 
 H        3.3704340000    -0.2375770000    -2.3403740000 
 H        4.5772900000     0.6789930000    -1.4304900000 
 H        2.9652400000     1.3444620000    -1.6663960000 
 H        3.5773580000    -1.1930640000    -0.0535160000 
 H        1.9875850000    -0.4958230000    -0.2735500000 
 H        2.7741160000     0.1481730000     1.9021000000 
 H        2.7682650000     1.6042980000     0.9051220000 
 H        5.3107190000    -0.0105340000     1.5830420000 
 H        6.7300540000     3.0760680000     1.9687090000 
 H        6.9474890000     1.4213610000     2.1329190000 
*
