! RI PBE def2-SVP def2-SVP/J NBO PAL2
% maxcore 2000
% output
    # printlevel mini
    print[ P_Basis ] 0
    print[ P_SCFInfo ] 1
    print[ P_SCFIterInfo ] 1
    print[ P_OrbEn ] 0
    print[ P_Cartesian ] 0
end
*xyz 0 1
 C        1.7840960000    -0.2121670000     0.7298830000 
 C        3.2509900000    -0.0345840000     0.3791380000 
 C        3.5549670000    -0.4165040000    -1.0688190000 
 C        5.0054260000    -0.2251980000    -1.4347950000 
 N        5.8550540000    -1.1631010000    -0.9048120000 
 N        5.4866020000     0.7425150000    -2.1095310000 
 H        1.5873180000     0.0708910000     1.7662600000 
 H        1.4688240000    -1.2519540000     0.6042580000 
 H        1.1460700000     0.4046700000     0.0908250000 
 H        3.8721110000    -0.6351320000     1.0500660000 
 H        3.5500160000     1.0061880000     0.5383020000 
 H        2.9459830000     0.1878130000    -1.7461840000 
 H        3.2662300000    -1.4619190000    -1.2355190000 
 H        5.4946190000    -2.0823700000    -0.7204160000 
 H        6.8021830000    -1.1227190000    -1.2447750000 
 H        4.7493210000     1.3850910000    -2.3815710000 
*
