! RI PBE def2-SVP def2-SVP/J NBO PAL2
% maxcore 2000
% output
    # printlevel mini
    print[ P_Basis ] 0
    print[ P_SCFInfo ] 1
    print[ P_SCFIterInfo ] 1
    print[ P_OrbEn ] 0
    print[ P_Cartesian ] 0
end
*xyz 0 1
 C        0.9908400000     0.1078130000     0.2630920000 
 C        2.5030460000     0.0607790000     0.1306480000 
 C        2.9582970000    -0.5791910000    -1.1669400000 
 N        4.4004280000    -0.5866080000    -1.2826400000 
 C        4.8852630000    -1.2289520000    -2.4861340000 
 C        6.3987470000    -1.2657860000    -2.5167990000 
 H        0.6876850000     0.5715820000     1.2041630000 
 H        0.5567580000    -0.8955260000     0.2335180000 
 H        0.5412070000     0.6850740000    -0.5496910000 
 H        2.9277700000    -0.4977890000     0.9740220000 
 H        2.9227760000     1.0696820000     0.1878760000 
 H        2.5547750000    -0.0093230000    -2.0131390000 
 H        2.5224670000    -1.5934450000    -1.2468600000 
 H        4.8022410000    -1.0445560000    -0.4716980000 
 H        4.5131570000    -0.6567400000    -3.3436510000 
 H        4.4865280000    -2.2533140000    -2.6051340000 
 H        6.8096950000    -0.2567670000    -2.4440530000 
 H        6.7597220000    -1.7233560000    -3.4403560000 
 H        6.7948070000    -1.8517960000    -1.6817140000 
*
