! RI PBE def2-SVP def2-SVP/J NBO PAL2
% maxcore 2000
% output
    # printlevel mini
    print[ P_Basis ] 0
    print[ P_SCFInfo ] 1
    print[ P_SCFIterInfo ] 1
    print[ P_OrbEn ] 0
    print[ P_Cartesian ] 0
end
*xyz 0 1
 C        0.9339410000    -0.1331380000     0.0641090000 
 C        2.4573720000    -0.0230890000    -0.0130860000 
 C        2.8778550000     1.4302680000     0.1901590000 
 N        3.0058990000    -0.9183050000     1.0112040000 
 C        2.9076910000    -0.5797090000    -1.3391900000 
 C        3.5281960000     0.0707030000    -2.3127340000 
 H        0.5808580000     0.1906650000     1.0483180000 
 H        0.6186770000    -1.1670500000    -0.0865200000 
 H        0.4593490000     0.4949120000    -0.6918400000 
 H        2.5375940000     1.7779010000     1.1691920000 
 H        2.4469120000     2.0921010000    -0.5656180000 
 H        3.9654680000     1.5329600000     0.1544860000 
 H        2.6870570000    -0.6285260000     1.9294390000 
 H        4.0181400000    -0.8608610000     1.0152280000 
 H        2.6818280000    -1.6372940000    -1.4600390000 
 H        3.7849920000     1.1216340000    -2.2385910000 
 H        3.8024910000    -0.4328620000    -3.2326180000 
*
