! RI PBE def2-SVP def2-SVP/J NBO PAL2
% maxcore 2000
% output
    # printlevel mini
    print[ P_Basis ] 0
    print[ P_SCFInfo ] 1
    print[ P_SCFIterInfo ] 1
    print[ P_OrbEn ] 0
    print[ P_Cartesian ] 0
end
*xyz 0 1
 C        0.9665350000     0.0469670000     0.0973140000 
 C        2.4958520000     0.0411830000     0.0836040000 
 C        3.0073380000     0.2270120000    -1.3524630000 
 N        2.9553130000     1.0922660000     0.9952710000 
 C        2.9848370000    -1.2445530000     0.5938260000 
 C        3.3954340000    -2.3029230000     0.9836430000 
 H        0.6010080000     1.0101740000    -0.2703630000 
 H        0.6002850000    -0.1002860000     1.1130190000 
 H        0.5686650000    -0.7396600000    -0.5450750000 
 H        2.6438380000     1.1793680000    -1.7489760000 
 H        2.6601500000    -0.5751360000    -2.0073580000 
 H        4.0990360000     0.2352850000    -1.3716830000 
 H        2.6877380000     1.9969920000     0.6227210000 
 H        3.9666480000     1.0799280000     1.0588330000 
 H        3.7542230000    -3.2395160000     1.3395860000 
*
