! RI PBE def2-SVP def2-SVP/J NBO PAL2
% maxcore 2000
% output
    # printlevel mini
    print[ P_Basis ] 0
    print[ P_SCFInfo ] 1
    print[ P_SCFIterInfo ] 1
    print[ P_OrbEn ] 0
    print[ P_Cartesian ] 0
end
*xyz 0 1
 C        1.0099990000     0.2188850000    -0.1093100000 
 C        2.5101830000     0.0573120000     0.0815950000 
 C        2.9040450000     0.3059390000     1.5383540000 
 N        2.9756740000    -1.2118500000    -0.4752770000 
 C        4.3983330000    -1.2490730000    -0.7024560000 
 C        2.5259070000    -2.3934570000     0.2204350000 
 H        0.7048610000     1.2375230000     0.1412660000 
 H        0.4425700000    -0.4557280000     0.5370260000 
 H        0.7332910000     0.0163850000    -1.1454970000 
 H        2.9981170000     0.8261590000    -0.5294930000 
 H        2.3920540000    -0.3858850000     2.2125990000 
 H        2.6276030000     1.3197680000     1.8379020000 
 H        3.9799760000     0.1978950000     1.6939740000 
 H        4.7072110000    -0.3733240000    -1.2786570000 
 H        4.6516160000    -2.1397910000    -1.2839800000 
 H        5.0029330000    -1.2794130000     0.2220990000 
 H        1.4423870000    -2.3781530000     0.3464740000 
 H        2.9854400000    -2.5279470000     1.2154110000 
 H        2.7740100000    -3.2761550000    -0.3749550000 
*
