! RI PBE def2-SVP def2-SVP/J NBO PAL2
% maxcore 2000
% output
    # printlevel mini
    print[ P_Basis ] 0
    print[ P_SCFInfo ] 1
    print[ P_SCFIterInfo ] 1
    print[ P_OrbEn ] 0
    print[ P_Cartesian ] 0
end
*xyz 0 1
 C        1.0590520000     0.1454860000     0.2545050000 
 C        2.4913570000    -0.1197710000    -0.1984830000 
 C        2.7698310000    -1.6209610000    -0.3167170000 
 N        2.6060440000    -2.2909220000     0.9640380000 
 C        2.7755330000     0.5579410000    -1.5011610000 
 C        3.7016630000     1.4843350000    -1.7039060000 
 H        0.8411860000    -0.4109630000     1.1669090000 
 H        0.3484200000    -0.1755920000    -0.5137980000 
 H        0.8966760000     1.2099160000     0.4356680000 
 H        3.1808580000     0.2878690000     0.5531440000 
 H        3.7671040000    -1.7552200000    -0.7618110000 
 H        2.0499040000    -2.0556460000    -1.0196030000 
 H        3.3540020000    -2.0302000000     1.5955970000 
 H        2.6536510000    -3.2951170000     0.8513380000 
 H        2.1485300000     0.2471900000    -2.3375730000 
 H        4.3443040000     1.8277040000    -0.8984850000 
 H        3.8504940000     1.9372510000    -2.6774630000 
*
