! RI PBE def2-SVP def2-SVP/J NBO PAL2
% maxcore 2000
% output
    # printlevel mini
    print[ P_Basis ] 0
    print[ P_SCFInfo ] 1
    print[ P_SCFIterInfo ] 1
    print[ P_OrbEn ] 0
    print[ P_Cartesian ] 0
end
*xyz 0 1
 C        1.0600140000     0.0636270000    -0.0089500000 
 C        2.5852870000    -0.0010470000    -0.0560810000 
 C        3.0829150000    -1.4472790000    -0.0034030000 
 N        4.5288500000    -1.4925230000     0.0891740000 
 C        3.1045360000     0.6745230000    -1.2400790000 
 C        3.5300870000     1.2079640000    -2.2291720000 
 H        0.6913570000    -0.4059450000     0.9060780000 
 H        0.6233310000    -0.4569160000    -0.8641390000 
 H        0.7116950000     1.0969460000    -0.0303710000 
 H        2.9957160000     0.5109320000     0.8225110000 
 H        2.6658700000    -1.9833220000    -0.8709250000 
 H        2.6638850000    -1.9107680000     0.8952260000 
 H        4.9410440000    -1.0811170000    -0.7407940000 
 H        4.8546230000    -2.4487330000     0.1442610000 
 H        3.9026800000     1.6933670000    -3.0999250000 
*
