! RI PBE def2-SVP def2-SVP/J NBO PAL2
% maxcore 2000
% output
    # printlevel mini
    print[ P_Basis ] 0
    print[ P_SCFInfo ] 1
    print[ P_SCFIterInfo ] 1
    print[ P_OrbEn ] 0
    print[ P_Cartesian ] 0
end
*xyz 0 1
 C        2.9089180000    -0.5199370000    -1.3798620000 
 C        2.5221530000    -0.0924510000     0.0241200000 
 C        3.0651860000     1.2865430000     0.4308200000 
 N        2.5948940000     1.7679360000     1.7250360000 
 C        4.5261290000     1.2954990000     0.4151610000 
 C        5.7261060000     1.2660200000     0.4103930000 
 H        2.4786430000    -1.4929330000    -1.6259780000 
 H        3.9934790000    -0.5945850000    -1.4826350000 
 H        2.5520580000     0.1982980000    -2.1236620000 
 H        2.8701070000    -0.8283620000     0.7568940000 
 H        1.4308350000    -0.0472420000     0.1136050000 
 H        2.7288650000     2.0122570000    -0.3222820000 
 H        2.9630920000     1.1821140000     2.4654440000 
 H        1.5841540000     1.7046180000     1.7638870000 
 H        6.7903420000     1.2568540000     0.4058590000 
*
