! RI PBE def2-SVP def2-SVP/J NBO PAL2
% maxcore 2000
% output
    # printlevel mini
    print[ P_Basis ] 0
    print[ P_SCFInfo ] 1
    print[ P_SCFIterInfo ] 1
    print[ P_OrbEn ] 0
    print[ P_Cartesian ] 0
end
*xyz 0 1
 C        1.1607560000     0.1742500000    -0.3929550000 
 C        2.6419530000     0.4924400000    -0.2735410000 
 C        3.3589430000    -0.4872040000     0.6392870000 
 N        4.7991370000    -0.3259310000     0.6713000000 
 C        5.2097880000     0.9216060000     1.2715400000 
 C        5.4307640000    -1.4421500000     1.3337150000 
 H        0.6514280000     0.8903960000    -1.0411700000 
 H        0.6681300000     0.2036090000     0.5830970000 
 H        1.0016480000    -0.8233030000    -0.8121190000 
 H        2.7599300000     1.5143810000     0.0991010000 
 H        3.1185850000     0.4609460000    -1.2583710000 
 H        3.1533780000    -1.5031060000     0.2843990000 
 H        2.9261990000    -0.4217850000     1.6587920000 
 H        4.8189090000     1.7699550000     0.7087260000 
 H        6.2997260000     0.9911060000     1.2600690000 
 H        4.8737700000     1.0208860000     2.3213740000 
 H        5.1630600000    -2.3746670000     0.8315800000 
 H        5.1415740000    -1.5325240000     2.3976880000 
 H        6.5171130000    -1.3338040000     1.2904990000 
*
