! RI PBE def2-SVP def2-SVP/J NBO PAL2
% maxcore 2000
% output
    # printlevel mini
    print[ P_Basis ] 0
    print[ P_SCFInfo ] 1
    print[ P_SCFIterInfo ] 1
    print[ P_OrbEn ] 0
    print[ P_Cartesian ] 0
end
*xyz 0 1
 C        0.7794970000     0.0837850000     0.1037440000 
 C        2.2516270000     0.1704220000    -0.1058680000 
 C        3.1190960000     0.5043620000     0.8474810000 
 N        4.4892770000     0.5923860000     0.6800730000 
 C        5.4073150000     0.9334460000     1.6433540000 
 N        5.2434120000     1.2372990000     2.8629790000 
 H        0.4023010000    -0.9212140000    -0.1116280000 
 H        0.2394540000     0.7706670000    -0.5559780000 
 H        0.5100400000     0.3282900000     1.1334460000 
 H        2.6250940000    -0.0556500000    -1.1033630000 
 H        2.7697290000     0.7335720000     1.8481310000 
 H        4.8540810000     0.3876240000    -0.2348590000 
 H        6.4244300000     0.9276670000     1.2470940000 
 H        4.2668480000     1.2180450000     3.1491940000 
*
