! RI PBE def2-SVP def2-SVP/J NBO PAL2
% maxcore 2000
% output
    # printlevel mini
    print[ P_Basis ] 0
    print[ P_SCFInfo ] 1
    print[ P_SCFIterInfo ] 1
    print[ P_OrbEn ] 0
    print[ P_Cartesian ] 0
end
*xyz 0 1
 C        0.6119650000     0.2463170000     0.4524080000 
 C        2.0482810000     0.2920460000     0.0354310000 
 C        2.8669170000     1.2817760000     0.4005490000 
 N        2.4146340000    -0.7864240000    -0.7674180000 
 C        3.6490900000    -1.3810650000    -0.9251590000 
 N        4.7558170000    -1.1459600000    -0.3591330000 
 H        0.3426060000     1.1378200000     1.0161750000 
 H        0.4123410000    -0.6346630000     1.0697660000 
 H       -0.0449690000     0.1898140000    -0.4225490000 
 H        2.4925150000     2.0674180000     1.0422760000 
 H        3.8859500000     1.3682900000     0.0521000000 
 H        1.6520080000    -1.2788170000    -1.2012900000 
 H        3.6042290000    -2.1873460000    -1.6609890000 
 H        4.6801360000    -0.4016170000     0.3295440000 
*
