! RI PBE def2-SVP def2-SVP/J NBO PAL2
% maxcore 2000
% output
    # printlevel mini
    print[ P_Basis ] 0
    print[ P_SCFInfo ] 1
    print[ P_SCFIterInfo ] 1
    print[ P_OrbEn ] 0
    print[ P_Cartesian ] 0
end
*xyz 0 1
 C        0.9843370000    -0.2016270000     0.0053280000 
 C        2.4776720000    -0.0582910000    -0.0141740000 
 C        3.1499420000     1.1028430000    -0.1720930000 
 N        2.6190530000     2.3352190000    -0.3397140000 
 C        3.2442290000    -1.2397750000     0.1464990000 
 N        3.8360900000    -2.2230280000     0.2802170000 
 H        0.4780110000     0.7563480000    -0.1249540000 
 H        0.6412480000    -0.6273390000     0.9519060000 
 H        0.6412390000    -0.8646660000    -0.7931800000 
 H        4.2340450000     1.0784690000    -0.1687870000 
 H        1.6285230000     2.4862240000    -0.3601440000 
 H        3.2140130000     3.1323130000    -0.4479940000 
*
