! RI PBE def2-SVP def2-SVP/J NBO PAL2
% maxcore 2000
% output
    # printlevel mini
    print[ P_Basis ] 0
    print[ P_SCFInfo ] 1
    print[ P_SCFIterInfo ] 1
    print[ P_OrbEn ] 0
    print[ P_Cartesian ] 0
end
*xyz 0 1
 C        1.0294200000     0.0526440000    -0.0531670000 
 C        2.5494320000     0.1161870000    -0.1035700000 
 C        2.9906770000     1.1761440000    -1.1168900000 
 N        3.0489500000     0.3810390000     1.2416990000 
 C        3.0897620000    -1.2584040000    -0.5081740000 
 N        4.5459450000    -1.2841220000    -0.5207640000 
 H        0.6157210000     1.0126170000     0.2684710000 
 H        0.7056180000    -0.7073520000     0.6608320000 
 H        0.6076040000    -0.1798240000    -1.0347520000 
 H        2.5900900000     2.1551770000    -0.8385870000 
 H        2.6355420000     0.9479500000    -2.1271470000 
 H        4.0800220000     1.2609860000    -1.1419540000 
 H        2.8661330000     1.3421860000     1.5057980000 
 H        4.0555970000     0.2476670000     1.2363340000 
 H        2.6384200000    -1.5462230000    -1.4690390000 
 H        2.7467480000    -1.9752450000     0.2422620000 
 H        4.9142320000    -0.9384070000    -1.3969120000 
 H        4.8923770000    -2.2258290000    -0.4029210000 
*
