! RI PBE def2-SVP def2-SVP/J NBO PAL2
% maxcore 2000
% output
    # printlevel mini
    print[ P_Basis ] 0
    print[ P_SCFInfo ] 1
    print[ P_SCFIterInfo ] 1
    print[ P_OrbEn ] 0
    print[ P_Cartesian ] 0
end
*xyz 0 1
 C        0.8900580000     0.0425560000     0.0404040000 
 C        2.4254570000     0.0086520000     0.0578620000 
 C        2.9439090000     0.0514350000     1.4258560000 
 N        3.3182210000     0.1145800000     2.5094460000 
 C        2.9402820000    -1.1623590000    -0.6534110000 
 N        3.3124330000    -2.0755320000    -1.2415710000 
 H        0.5396900000     0.9429350000     0.5443170000 
 H        0.4841210000    -0.8301030000     0.5505740000 
 H        0.5374260000     0.0467110000    -0.9906150000 
 H        2.8133130000     0.8941250000    -0.4597630000 
*
