! RI PBE def2-SVP def2-SVP/J NBO PAL2
% maxcore 2000
% output
    # printlevel mini
    print[ P_Basis ] 0
    print[ P_SCFInfo ] 1
    print[ P_SCFIterInfo ] 1
    print[ P_OrbEn ] 0
    print[ P_Cartesian ] 0
end
*xyz 0 1
 C        1.0048090000    -0.0981950000    -0.2526420000 
 C        2.5116780000     0.0350510000    -0.1223270000 
 C        3.0280880000    -0.5202060000     1.1915420000 
 N        4.4566630000    -0.3813780000     1.2887740000 
 C        5.1789530000    -0.7966530000     2.3630020000 
 N        4.7754010000    -1.3551750000     3.4321580000 
 H        0.6543670000     0.3066090000    -1.2036990000 
 H        0.4896470000     0.4396010000     0.5474130000 
 H        0.6946420000    -1.1450970000    -0.2026350000 
 H        2.7988360000     1.0895330000    -0.2018690000 
 H        3.0031200000    -0.4894300000    -0.9494400000 
 H        2.7472700000    -1.5789860000     1.2779470000 
 H        2.5425150000     0.0028890000     2.0269670000 
 H        4.9459740000     0.0450100000     0.5226850000 
 H        6.2490130000    -0.6050050000     2.2510190000 
 H        3.7651130000    -1.4865770000     3.4335150000 
*
