! RI PBE def2-SVP def2-SVP/J NBO PAL2
% maxcore 2000
% output
    # printlevel mini
    print[ P_Basis ] 0
    print[ P_SCFInfo ] 1
    print[ P_SCFIterInfo ] 1
    print[ P_OrbEn ] 0
    print[ P_Cartesian ] 0
end
*xyz 0 1
 C        0.8637230000    -0.1047810000    -0.4946660000 
 C        2.1635220000    -0.0629830000    -0.2051120000 
 C        2.7152850000    -0.7011850000     0.9675590000 
 N        3.9674780000    -0.6413530000     1.2150510000 
 N        4.2970800000    -1.3146250000     2.3826770000 
 C        5.5383340000    -1.2604940000     2.6369080000 
 H        0.4609960000     0.3774410000    -1.3768000000 
 H        0.1611080000    -0.6263950000     0.1473990000 
 H        2.8681920000     0.4580320000    -0.8456500000 
 H        2.0450040000    -1.2389560000     1.6441770000 
 H        5.8960840000    -1.7589620000     3.5324910000 
 H        6.2401940000    -0.7342370000     1.9875660000 
*
