! RI PBE def2-SVP def2-SVP/J NBO PAL2
% maxcore 2000
% output
    # printlevel mini
    print[ P_Basis ] 0
    print[ P_SCFInfo ] 1
    print[ P_SCFIterInfo ] 1
    print[ P_OrbEn ] 0
    print[ P_Cartesian ] 0
end
*xyz 0 1
 C        1.7808480000    -1.1612600000    -0.7183130000 
 C        2.7840290000    -0.0728890000    -0.3522270000 
 C        2.7619950000     0.2646170000     1.0987280000 
 N        3.7960710000     0.1443610000     1.8248630000 
 N        3.7397810000     0.5317930000     3.1222540000 
 C        4.6763710000    -0.1518380000     3.9804280000 
 H        1.7908290000    -1.3582710000    -1.7925950000 
 H        0.7625000000    -0.8714500000    -0.4445090000 
 H        2.0120230000    -2.0946950000    -0.2000080000 
 H        2.5599270000     0.8302450000    -0.9341990000 
 H        3.7996590000    -0.3779820000    -0.6136700000 
 H        1.8135570000     0.6270270000     1.5231300000 
 H        2.7967060000     0.5744360000     3.5007640000 
 H        5.6802590000    -0.0281000000     3.5733410000 
 H        4.4763950000    -1.2274890000     4.0825440000 
 H        4.6451400000     0.3075950000     4.9700570000 
*
