! RI PBE def2-SVP def2-SVP/J NBO PAL2
% maxcore 2000
% output
    # printlevel mini
    print[ P_Basis ] 0
    print[ P_SCFInfo ] 1
    print[ P_SCFIterInfo ] 1
    print[ P_OrbEn ] 0
    print[ P_Cartesian ] 0
end
*xyz 0 1
 C        0.7892870000     0.1952930000    -0.0055300000 
 C        2.3057220000     0.1105080000    -0.1538290000 
 C        2.8138980000    -1.2625560000     0.0950280000 
 N        3.4610950000    -1.9033970000    -0.7905660000 
 N        3.8348560000    -3.1736010000    -0.3483760000 
 C        4.4912510000    -3.8120220000    -1.2228020000 
 H        0.4451510000     1.2216010000    -0.1458580000 
 H        0.4671600000    -0.1324060000     0.9861260000 
 H        0.2893020000    -0.4339520000    -0.7447770000 
 H        2.7756130000     0.7860440000     0.5717320000 
 H        2.6220640000     0.4264320000    -1.1497340000 
 H        2.6112430000    -1.7313730000     1.0641380000 
 H        4.8286610000    -4.8139700000    -0.9748950000 
 H        4.7213070000    -3.3864020000    -2.2013480000 
*
