! RI PBE def2-SVP def2-SVP/J NBO PAL2
% maxcore 2000
% output
    # printlevel mini
    print[ P_Basis ] 0
    print[ P_SCFInfo ] 1
    print[ P_SCFIterInfo ] 1
    print[ P_OrbEn ] 0
    print[ P_Cartesian ] 0
end
*xyz 0 1
 C        1.2012400000    -0.1007160000     0.4324300000 
 C        2.6901910000     0.1397820000     0.2565930000 
 C        2.9924400000     1.0285610000    -0.9339020000 
 N        4.4092970000     1.2299150000    -1.0632010000 
 N        4.8809120000     1.9777100000    -2.0440250000 
 C        6.1355870000     2.1605180000    -2.1663170000 
 H        1.0035820000    -0.7419830000     1.2935600000 
 H        0.7722030000    -0.5856910000    -0.4482870000 
 H        0.6644760000     0.8387970000     0.5877810000 
 H        3.2075600000    -0.8183680000     0.1304320000 
 H        3.1002400000     0.6007870000     1.1626650000 
 H        2.4844540000     1.9940330000    -0.8123690000 
 H        2.5921690000     0.5706380000    -1.8477150000 
 H        5.0424150000     0.7964070000    -0.4031400000 
 H        6.4796740000     2.7805070000    -2.9837660000 
 H        6.8722620000     1.7215130000    -1.4858490000 
*
