! RI PBE def2-SVP def2-SVP/J NBO PAL2
% maxcore 2000
% output
    # printlevel mini
    print[ P_Basis ] 0
    print[ P_SCFInfo ] 1
    print[ P_SCFIterInfo ] 1
    print[ P_OrbEn ] 0
    print[ P_Cartesian ] 0
end
*xyz 0 1
 C        2.8880820000    -0.7637490000     0.8701550000 
 C        2.3268980000     0.2423930000    -0.1138800000 
 N        3.2468110000     1.3440630000    -0.3121050000 
 C        2.7128320000     2.5766930000    -0.8484990000 
 C        3.1918380000     2.5139900000     0.5524800000 
 C        2.2391970000     2.6587860000     1.7062320000 
 H        2.2213280000    -1.6237680000     0.9669030000 
 H        3.0115100000    -0.3200600000     1.8608400000 
 H        3.8654700000    -1.1177550000     0.5365970000 
 H        1.3272700000     0.5702380000     0.2112750000 
 H        2.1902610000    -0.2329330000    -1.0907040000 
 H        1.6338310000     2.6390580000    -0.9851700000 
 H        3.2977460000     3.0599880000    -1.6251240000 
 H        4.1821510000     2.9171790000     0.7537140000 
 H        2.1550720000     3.7138170000     1.9795020000 
 H        1.2358310000     2.3034030000     1.4700500000 
 H        2.5953920000     2.1187660000     2.5878340000 
*
