! RI PBE def2-SVP def2-SVP/J NBO PAL2
% maxcore 2000
% output
    # printlevel mini
    print[ P_Basis ] 0
    print[ P_SCFInfo ] 1
    print[ P_SCFIterInfo ] 1
    print[ P_OrbEn ] 0
    print[ P_Cartesian ] 0
end
*xyz 0 1
 C        1.1490390000     0.7333400000    -0.3736610000 
 C        2.3363820000    -0.1923810000    -0.5346320000 
 N        3.4783520000     0.2890960000     0.2194590000 
 C        4.6251230000    -0.5564430000     0.1386780000 
 C        5.5893770000    -0.3085830000    -0.9794030000 
 C        5.9581960000     0.0519990000     0.4291540000 
 H        0.2985380000     0.3824340000    -0.9618770000 
 H        1.4026340000     1.7448930000    -0.6974750000 
 H        0.8285110000     0.7848360000     0.6714280000 
 H        2.6316910000    -0.2410420000    -1.5877750000 
 H        2.0478870000    -1.2188380000    -0.2469730000 
 H        3.2171030000     0.4302920000     1.1886610000 
 H        4.4966670000    -1.6023110000     0.4304900000 
 H        5.3493990000     0.5069600000    -1.6498840000 
 H        6.0754060000    -1.1594930000    -1.4398900000 
 H        5.9633790000     1.1042680000     0.6837740000 
 H        6.6973160000    -0.5508190000     0.9416270000 
*
