! RI PBE def2-SVP def2-SVP/J NBO PAL2
% maxcore 2000
% output
    # printlevel mini
    print[ P_Basis ] 0
    print[ P_SCFInfo ] 1
    print[ P_SCFIterInfo ] 1
    print[ P_OrbEn ] 0
    print[ P_Cartesian ] 0
end
*xyz 0 1
 C        0.8661740000    -0.2715590000     0.0397340000 
 C        2.3514530000     0.0447260000    -0.0304070000 
 N        2.9558070000    -0.2078510000     1.2712680000 
 C        3.0119370000    -0.8090370000    -1.0948330000 
 C        4.4157070000    -1.2426720000    -0.9980160000 
 N        3.3268390000    -2.2011150000    -0.8101810000 
 H        0.3583980000     0.3820560000     0.7547190000 
 H        0.7117240000    -1.3084010000     0.3489790000 
 H        0.3936960000    -0.1336030000    -0.9344580000 
 H        2.4615180000     1.0956880000    -0.3416550000 
 H        2.3297320000     0.0698470000     2.0149760000 
 H        3.8140770000     0.3139550000     1.3895960000 
 H        2.6024430000    -0.6460930000    -2.0893730000 
 H        4.9861790000    -0.9525930000    -0.1215160000 
 H        5.0023540000    -1.3777010000    -1.9003950000 
 H        3.2085840000    -2.3321270000     0.1933510000 
*
