! RI PBE def2-SVP def2-SVP/J NBO PAL2
% maxcore 2000
% output
    # printlevel mini
    print[ P_Basis ] 0
    print[ P_SCFInfo ] 1
    print[ P_SCFIterInfo ] 1
    print[ P_OrbEn ] 0
    print[ P_Cartesian ] 0
end
*xyz 0 1
 C        1.6250060000    -0.8701770000    -0.4601150000 
 C        2.8719400000    -1.4661530000     0.1650290000 
 N        3.1574840000    -0.9624660000     1.4963610000 
 C        2.1580640000    -1.3766230000     2.4540780000 
 C        4.4957870000    -1.3385070000     1.9149000000 
 C        4.9771000000    -0.6080530000     3.1540930000 
 H        1.5453250000    -1.1851030000    -1.5031210000 
 H        1.6691210000     0.2208500000    -0.4317450000 
 H        0.7103720000    -1.1885280000     0.0435690000 
 H        3.7311140000    -1.2168760000    -0.4649630000 
 H        2.7948860000    -2.5715430000     0.1641800000 
 H        1.1702900000    -1.0329910000     2.1463770000 
 H        2.3616230000    -0.9375890000     3.4309600000 
 H        2.1175910000    -2.4763190000     2.5732610000 
 H        5.1707260000    -1.1024490000     1.0866810000 
 H        4.5711620000    -2.4321180000     2.0767010000 
 H        4.8723610000     0.4714550000     3.0244890000 
 H        6.0310740000    -0.8333120000     3.3323560000 
 H        4.4287760000    -0.8993970000     4.0518990000 
*
