! RI PBE def2-SVP def2-SVP/J NBO PAL2
% maxcore 2000
% output
    # printlevel mini
    print[ P_Basis ] 0
    print[ P_SCFInfo ] 1
    print[ P_SCFIterInfo ] 1
    print[ P_OrbEn ] 0
    print[ P_Cartesian ] 0
end
*xyz 0 1
 C        1.2192610000    -0.5022030000    -0.4928530000 
 C        2.7200570000    -0.4103000000    -0.3123980000 
 N        3.3065100000     0.4663830000    -1.3059180000 
 C        4.7203650000     0.7578280000    -1.1225640000 
 C        5.5703260000    -0.4583540000    -1.4557180000 
 C        5.0972850000     1.9348320000    -2.0041880000 
 H        0.7793880000    -1.1861030000     0.2359740000 
 H        0.9738950000    -0.8584520000    -1.4955530000 
 H        0.7450750000     0.4748600000    -0.3569150000 
 H        3.1564870000    -1.4076600000    -0.4222590000 
 H        2.9507620000    -0.0831620000     0.7184080000 
 H        2.7910550000     1.3393020000    -1.3156320000 
 H        4.9270960000     1.0356980000    -0.0710800000 
 H        5.3912900000    -0.7682680000    -2.4886900000 
 H        5.3471710000    -1.3044750000    -0.8029250000 
 H        6.6313930000    -0.2249490000    -1.3398910000 
 H        4.9098420000     1.6958620000    -3.0543700000 
 H        6.1539680000     2.1850110000    -1.8898220000 
 H        4.5144510000     2.8249500000    -1.7486050000 
*
