! RI PBE def2-SVP def2-SVP/J NBO PAL2
% maxcore 2000
% output
    # printlevel mini
    print[ P_Basis ] 0
    print[ P_SCFInfo ] 1
    print[ P_SCFIterInfo ] 1
    print[ P_OrbEn ] 0
    print[ P_Cartesian ] 0
end
*xyz 0 1
 C        1.5510850000     0.7602670000     0.0942820000 
 C        3.0171010000     0.4509560000    -0.1199240000 
 N        3.3357490000    -0.8897040000     0.3270590000 
 C        4.7222140000    -1.2430190000     0.0891510000 
 C        4.9909230000    -2.6379800000     0.4024220000 
 C        5.2073880000    -3.7942170000     0.6389870000 
 H        1.3208080000     1.7818200000    -0.2148920000 
 H        1.2835190000     0.6456870000     1.1463950000 
 H        0.9174850000     0.0870830000    -0.4907560000 
 H        3.6306560000     1.1508230000     0.4591080000 
 H        3.2820540000     0.6135550000    -1.1806020000 
 H        2.7336100000    -1.5635800000    -0.1313040000 
 H        5.3545200000    -0.6076610000     0.7208870000 
 H        5.0419010000    -1.0531890000    -0.9519860000 
 H        5.4008680000    -4.8175320000     0.8579820000 
*
