! RI PBE def2-SVP def2-SVP/J NBO PAL2
% maxcore 2000
% output
    # printlevel mini
    print[ P_Basis ] 0
    print[ P_SCFInfo ] 1
    print[ P_SCFIterInfo ] 1
    print[ P_OrbEn ] 0
    print[ P_Cartesian ] 0
end
*xyz 0 1
 C        1.0443540000    -0.1553810000    -0.2309750000 
 C        2.4523470000    -0.1614170000     0.3260200000 
 N        3.4334970000    -0.2923520000    -0.7326640000 
 C        4.8019470000    -0.2057300000    -0.2660100000 
 C        5.7772220000    -0.5045880000    -1.3880730000 
 N        5.5465760000     0.3806190000    -2.5246180000 
 H        0.3068960000    -0.0912320000     0.5719680000 
 H        0.8546280000    -1.0641810000    -0.8059800000 
 H        0.8871680000     0.7016200000    -0.8929060000 
 H        2.5761050000    -1.0117420000     1.0061070000 
 H        2.6135260000     0.7465100000     0.9350040000 
 H        3.2851080000     0.4511050000    -1.4070250000 
 H        4.9412920000    -0.9446690000     0.5308120000 
 H        5.0353460000     0.7839240000     0.1636520000 
 H        5.6986970000    -1.5688930000    -1.6515230000 
 H        6.7922480000    -0.3340820000    -1.0185410000 
 H        4.7938710000     0.0178520000    -3.0966280000 
 H        6.3636630000     0.4210260000    -3.1188200000 
*
