! RI PBE def2-SVP def2-SVP/J NBO PAL2
% maxcore 2000
% output
    # printlevel mini
    print[ P_Basis ] 0
    print[ P_SCFInfo ] 1
    print[ P_SCFIterInfo ] 1
    print[ P_OrbEn ] 0
    print[ P_Cartesian ] 0
end
*xyz 0 1
 C        0.9754420000    -0.0479840000    -0.0257230000 
 C        2.4730520000    -0.0460070000    -0.0590140000 
 N        3.0453530000     0.0263260000    -1.2774110000 
 C        3.1970990000    -0.1141680000     1.0891270000 
 C        4.6031030000    -0.1116090000     1.0460110000 
 N        5.7557950000    -0.1056370000     0.9454150000 
 H        0.5485090000     0.0115010000    -1.0276020000 
 H        0.6056150000     0.8005300000     0.5521910000 
 H        0.6056150000    -0.9589200000     0.4477270000 
 H        2.4879980000     0.0755980000    -2.1074840000 
 H        4.0475780000     0.0317690000    -1.3691510000 
 H        2.7013620000    -0.1710490000     2.0472740000 
*
