! RI PBE def2-SVP def2-SVP/J NBO PAL2
% maxcore 2000
% output
    # printlevel mini
    print[ P_Basis ] 0
    print[ P_SCFInfo ] 1
    print[ P_SCFIterInfo ] 1
    print[ P_OrbEn ] 0
    print[ P_Cartesian ] 0
end
*xyz 0 1
 C        1.0083900000     0.1695140000    -0.0336740000 
 C        2.5184850000     0.0768620000     0.1339820000 
 N        2.9966210000     0.5950360000     1.4134770000 
 C        3.0144180000    -1.3685500000    -0.0278100000 
 C        4.5050720000    -1.4149930000    -0.3325600000 
 N        2.6379020000    -2.1282630000     1.1618580000 
 H        0.6611780000     1.1943850000     0.1227220000 
 H        0.5150260000    -0.4806590000     0.6936010000 
 H        0.6955260000    -0.1426640000    -1.0345740000 
 H        2.9999840000     0.6730140000    -0.6494450000 
 H        2.4048870000     0.2348620000     2.1546350000 
 H        2.9111400000     1.6030320000     1.4397560000 
 H        2.4660250000    -1.8056980000    -0.8699260000 
 H        5.0611500000    -0.9138980000     0.4641470000 
 H        4.7379100000    -0.9125830000    -1.2762290000 
 H        4.8556880000    -2.4479600000    -0.4061910000 
 H        3.2910110000    -1.9138340000     1.9079510000 
 H        2.7168860000    -3.1215930000     0.9854890000 
*
