! RI PBE def2-SVP def2-SVP/J NBO PAL2
% maxcore 2000
% output
    # printlevel mini
    print[ P_Basis ] 0
    print[ P_SCFInfo ] 1
    print[ P_SCFIterInfo ] 1
    print[ P_OrbEn ] 0
    print[ P_Cartesian ] 0
end
*xyz 0 1
 C        2.3469400000     0.7771750000     1.3190880000 
 C        2.6787640000     0.0416410000     0.0297870000 
 N        3.1012490000     0.9026990000    -1.0516410000 
 C        2.1316370000     1.7724030000    -1.6604260000 
 C        4.4277880000     1.0913400000    -1.3043150000 
 N        4.9953820000     1.9389670000    -2.0655650000 
 H        2.0354970000     0.0707980000     2.0925090000 
 H        1.5317990000     1.4900820000     1.1731460000 
 H        3.2158470000     1.3274690000     1.6871140000 
 H        1.8102950000    -0.5385510000    -0.3026690000 
 H        3.4821670000    -0.6775060000     0.2095890000 
 H        1.1322320000     1.3694610000    -1.4923180000 
 H        2.2944080000     1.8272960000    -2.7408320000 
 H        2.1622300000     2.7939210000    -1.2596480000 
 H        5.0599340000     0.3766670000    -0.7715130000 
 H        4.3278210000     2.5736270000    -2.4998050000 
*
