! RI PBE def2-SVP def2-SVP/J NBO PAL2
% maxcore 2000
% output
    # printlevel mini
    print[ P_Basis ] 0
    print[ P_SCFInfo ] 1
    print[ P_SCFIterInfo ] 1
    print[ P_OrbEn ] 0
    print[ P_Cartesian ] 0
end
*xyz 0 1
 C        1.9171470000    -0.5087670000    -0.1545670000 
 C        3.2098150000     0.2372000000     0.0999310000 
 N        4.2901560000    -0.3403690000    -0.6539940000 
 C        5.5726550000     0.1282890000    -0.6198870000 
 C        6.5313970000    -0.6321050000    -1.4882920000 
 N        5.9953800000     1.1199280000     0.0649970000 
 H        1.1020170000    -0.0662980000     0.4196590000 
 H        2.0039340000    -1.5577760000     0.1404870000 
 H        1.6420920000    -0.4693840000    -1.2118280000 
 H        3.4467370000     0.2130830000     1.1720340000 
 H        3.0872750000     1.2943090000    -0.1713960000 
 H        4.0861230000    -1.1324170000    -1.2366470000 
 H        6.2196880000    -0.5978540000    -2.5361350000 
 H        6.5805300000    -1.6826460000    -1.1878560000 
 H        7.5198050000    -0.1892020000    -1.3964630000 
 H        5.2485390000     1.5476290000     0.6089570000 
*
