! RI PBE def2-SVP def2-SVP/J NBO PAL2
% maxcore 2000
% output
    # printlevel mini
    print[ P_Basis ] 0
    print[ P_SCFInfo ] 1
    print[ P_SCFIterInfo ] 1
    print[ P_OrbEn ] 0
    print[ P_Cartesian ] 0
end
*xyz 0 1
 C        1.0523840000     0.6443800000    -0.0088730000 
 C        0.6300690000    -0.5200410000    -0.8915620000 
 N        1.6641080000    -0.9961730000    -1.7858980000 
 C        2.7869040000    -1.7009650000    -1.2321660000 
 N        1.8053340000    -0.2632160000    -2.8907110000 
 C        2.8648830000    -0.3276190000    -3.6006040000 
 H        0.2201880000     0.9684430000     0.6210110000 
 H        1.3664690000     1.4915260000    -0.6223450000 
 H        1.8809570000     0.3709740000     0.6496780000 
 H       -0.2106670000    -0.2266200000    -1.5223540000 
 H        0.3024550000    -1.3644690000    -0.2772190000 
 H        2.4774340000    -2.1884330000    -0.3083360000 
 H        3.6370880000    -1.0361340000    -1.0154910000 
 H        3.1352730000    -2.4735590000    -1.9250700000 
 H        2.8793600000     0.2647730000    -4.5073860000 
 H        3.7343710000    -0.9409560000    -3.3681630000 
*
