! RI PBE def2-SVP def2-SVP/J NBO PAL2
% maxcore 2000
% output
    # printlevel mini
    print[ P_Basis ] 0
    print[ P_SCFInfo ] 1
    print[ P_SCFIterInfo ] 1
    print[ P_OrbEn ] 0
    print[ P_Cartesian ] 0
end
*xyz 0 1
 C        0.9694240000     0.0023050000    -0.5459280000 
 C        2.3501030000    -0.0407430000    -0.0016050000 
 N        3.2420540000     0.7539840000    -0.4173830000 
 N        4.4906330000     0.5487180000     0.2301190000 
 C        5.5867810000     0.8507370000    -0.6934380000 
 C        5.2090460000     1.8202550000     0.3424570000 
 H        0.2492920000     0.1938590000     0.2554210000 
 H        0.7024880000    -0.9635610000    -0.9855840000 
 H        0.8793800000     0.7797370000    -1.3039080000 
 H        2.5921220000    -0.7754340000     0.7723990000 
 H        5.2980940000     1.0781980000    -1.7132220000 
 H        6.4594610000     0.2198050000    -0.5734680000 
 H        4.6656590000     2.7014810000     0.0211980000 
 H        5.7954630000     1.9242590000     1.2476320000 
*
