! RI PBE def2-SVP def2-SVP/J NBO PAL2
% maxcore 2000
% output
    # printlevel mini
    print[ P_Basis ] 0
    print[ P_SCFInfo ] 1
    print[ P_SCFIterInfo ] 1
    print[ P_OrbEn ] 0
    print[ P_Cartesian ] 0
end
*xyz 0 1
 C        1.0205640000     0.1698260000    -0.1096200000 
 C        2.4682540000    -0.1770730000     0.0740440000 
 N        3.4588050000     0.3455600000    -0.5222500000 
 N        2.6685660000    -1.2432110000     0.9527680000 
 C        3.8860800000    -1.3299010000     1.7097230000 
 C        2.5958410000    -1.0348940000     2.3852350000 
 H        0.9014230000     1.0236130000    -0.7758760000 
 H        0.5550650000     0.4034490000     0.8513180000 
 H        0.4849800000    -0.6871110000    -0.5247670000 
 H        3.1437610000     1.0522940000    -1.1815900000 
 H        4.5911910000    -0.5151060000     1.5860400000 
 H        4.3180140000    -2.3214070000     1.7867260000 
 H        2.4496590000    -0.0176390000     2.7385980000 
 H        2.0800970000    -1.8023900000     2.9523520000 
*
