! RI PBE def2-SVP def2-SVP/J NBO PAL2
% maxcore 2000
% output
    # printlevel mini
    print[ P_Basis ] 0
    print[ P_SCFInfo ] 1
    print[ P_SCFIterInfo ] 1
    print[ P_OrbEn ] 0
    print[ P_Cartesian ] 0
end
*xyz 0 1
 C        0.8124800000     0.0617130000     0.2008440000 
 C        2.2855110000     0.0328840000     0.0415850000 
 N        3.0591900000     0.0721290000     1.0479380000 
 N        4.4035880000     0.0348830000     0.6843630000 
 C        5.1772750000     0.0746980000     1.6906880000 
 C        6.6503060000     0.0458920000     1.5314270000 
 H        0.3633190000    -0.8325840000    -0.2428100000 
 H        0.3882100000     0.9199190000    -0.3300250000 
 H        0.5397740000     0.1180170000     1.2540190000 
 H        2.7104390000    -0.0235500000    -0.9654500000 
 H        4.7523490000     0.1312920000     2.6977150000 
 H        6.9230020000    -0.0111560000     0.4782900000 
 H        7.0746920000    -0.8118470000     2.0629540000 
 H        7.0993640000     0.9405900000     1.9743810000 
*
