! RI PBE def2-SVP def2-SVP/J NBO PAL2
% maxcore 2000
% output
    # printlevel mini
    print[ P_Basis ] 0
    print[ P_SCFInfo ] 1
    print[ P_SCFIterInfo ] 1
    print[ P_OrbEn ] 0
    print[ P_Cartesian ] 0
end
*xyz 0 1
 C        1.0169950000    -0.0998110000    -0.1061960000 
 C        2.5159220000    -0.0916490000    -0.0322410000 
 N        3.1765390000    -0.0776180000     1.0693580000 
 N        2.4827610000    -0.1096210000     2.2206440000 
 C        3.2582690000    -0.1113100000    -1.2463730000 
 C        3.8198660000    -0.1236860000    -2.3105180000 
 H        0.6112180000    -0.9561980000     0.4428120000 
 H        0.6788200000    -0.1559900000    -1.1384210000 
 H        0.5918460000     0.8095070000     0.3365490000 
 H        3.0455580000     0.1969350000     2.9966070000 
 H        1.5452580000     0.2760530000     2.2188810000 
 H        4.3385480000    -0.1367100000    -3.2395020000 
*
