! RI PBE def2-SVP def2-SVP/J NBO PAL2
% maxcore 2000
% output
    # printlevel mini
    print[ P_Basis ] 0
    print[ P_SCFInfo ] 1
    print[ P_SCFIterInfo ] 1
    print[ P_OrbEn ] 0
    print[ P_Cartesian ] 0
end
*xyz 0 1
 C        1.1921790000     0.0942650000    -0.0490650000 
 N        2.6353160000     0.0334410000     0.0065010000 
 C        3.2829400000    -0.7454700000    -1.0165710000 
 C        3.3320350000     0.7436620000    -1.0563040000 
 C        4.5164810000     1.4821010000    -0.7250850000 
 C        5.5109370000     2.1067820000    -0.4753120000 
 H        0.7785690000    -0.7647590000     0.4837470000 
 H        0.7977090000     0.0868550000    -1.0778580000 
 H        0.8486160000     1.0036390000     0.4478640000 
 H        2.6608390000    -1.2286990000    -1.7673420000 
 H        4.1647620000    -1.2959640000    -0.7093690000 
 H        2.7059920000     1.2082600000    -1.8168850000 
 H        6.3916160000     2.6573970000    -0.2438210000 
*
