! RI PBE def2-SVP def2-SVP/J NBO PAL2
% maxcore 2000
% output
    # printlevel mini
    print[ P_Basis ] 0
    print[ P_SCFInfo ] 1
    print[ P_SCFIterInfo ] 1
    print[ P_OrbEn ] 0
    print[ P_Cartesian ] 0
end
*xyz 0 1
 C        1.1756450000     0.2287190000    -0.0803430000 
 N        2.6168350000     0.1780750000    -0.0133440000 
 C        3.2727890000    -0.7340790000    -0.9279500000 
 C        3.3361130000     0.7303660000    -1.1366590000 
 C        4.5736480000     1.5313440000    -0.8605140000 
 N        4.2425530000     2.9322610000    -0.6385860000 
 H        0.7530950000    -0.5551950000     0.5528060000 
 H        0.7853640000     0.0937010000    -1.1025460000 
 H        0.8328880000     1.1953420000     0.2948030000 
 H        2.6502160000    -1.3096280000    -1.6099540000 
 H        4.1308520000    -1.2680680000    -0.5307700000 
 H        2.7224810000     1.1072680000    -1.9577800000 
 H        5.2898700000     1.3689340000    -1.6828760000 
 H        5.0313200000     1.1373790000     0.0504680000 
 H        3.9476590000     3.3671350000    -1.5048030000 
 H        5.0550620000     3.4434460000    -0.3182410000 
*
