! RI PBE def2-SVP def2-SVP/J NBO PAL2
% maxcore 2000
% output
    # printlevel mini
    print[ P_Basis ] 0
    print[ P_SCFInfo ] 1
    print[ P_SCFIterInfo ] 1
    print[ P_OrbEn ] 0
    print[ P_Cartesian ] 0
end
*xyz 0 1
 C        1.0937360000     0.1536260000    -0.0875950000 
 N        2.5392070000     0.0955730000    -0.0511320000 
 C        3.1851910000    -0.6880480000    -1.0687380000 
 C        3.2188190000     0.8002890000    -1.1218800000 
 C        4.4055790000     1.5395170000    -0.7845480000 
 N        5.3598100000     2.1336950000    -0.5419540000 
 H        0.6936890000    -0.6983120000     0.4650840000 
 H        0.6866200000     0.1288900000    -1.1102770000 
 H        0.7574410000     1.0692490000     0.4014590000 
 H        2.5655940000    -1.1743820000    -1.8190770000 
 H        4.0727350000    -1.2298860000    -0.7633760000 
 H        2.6065790000     1.2713890000    -1.8877660000 
*
