! RI PBE def2-SVP def2-SVP/J NBO PAL2
% maxcore 2000
% output
    # printlevel mini
    print[ P_Basis ] 0
    print[ P_SCFInfo ] 1
    print[ P_SCFIterInfo ] 1
    print[ P_OrbEn ] 0
    print[ P_Cartesian ] 0
end
*xyz 0 1
 C        0.9206930000     0.0707540000    -0.0351030000 
 N        2.3597010000     0.0533020000    -0.0301290000 
 C        3.1670900000     1.1527640000    -0.0271730000 
 C        4.4731640000     0.7316090000    -0.0226900000 
 C        4.4525640000    -0.6827040000    -0.0229650000 
 C        3.1353000000    -1.0685560000    -0.0276030000 
 H        0.5775830000     1.1043940000    -0.0361710000 
 H        0.5196390000    -0.4255870000     0.8518970000 
 H        0.5257870000    -0.4253800000    -0.9249720000 
 H        2.7452650000     2.1456230000    -0.0284980000 
 H        5.3422830000     1.3705240000    -0.0195780000 
 H        5.3036370000    -1.3457500000    -0.0201020000 
 H        2.6876840000    -2.0502040000    -0.0293030000 
*
