! RI PBE def2-SVP def2-SVP/J NBO PAL2
% maxcore 2000
% output
    # printlevel mini
    print[ P_Basis ] 0
    print[ P_SCFInfo ] 1
    print[ P_SCFIterInfo ] 1
    print[ P_OrbEn ] 0
    print[ P_Cartesian ] 0
end
*xyz 0 1
 C        1.1496170000     0.0866370000     0.3590710000 
 N        2.4068840000     0.0850010000    -0.3320910000 
 C        2.6846940000    -1.1000480000    -1.1276740000 
 C        3.6079690000    -0.5863950000    -2.1858190000 
 C        3.6054210000     0.7392200000    -2.1935920000 
 C        2.6801510000     1.2616950000    -1.1415270000 
 H        1.0760850000    -0.7912530000     1.0058610000 
 H        0.2780030000     0.0809650000    -0.3220180000 
 H        1.0726940000     0.9717650000     0.9955190000 
 H        1.7728420000    -1.5265630000    -1.5918340000 
 H        3.1251920000    -1.8951060000    -0.5130010000 
 H        4.1624050000    -1.2299820000    -2.8566730000 
 H        4.1573930000     1.3770210000    -2.8719620000 
 H        1.7666760000     1.6792260000    -1.6106380000 
 H        3.1175740000     2.0655970000    -0.5362320000 
*
