! RI PBE def2-SVP def2-SVP/J NBO PAL2
% maxcore 2000
% output
    # printlevel mini
    print[ P_Basis ] 0
    print[ P_SCFInfo ] 1
    print[ P_SCFIterInfo ] 1
    print[ P_OrbEn ] 0
    print[ P_Cartesian ] 0
end
*xyz 0 1
 C        1.0718420000    -0.0515150000    -0.0752870000 
 N        2.5092450000    -0.0055130000    -0.0704620000 
 C        3.3008080000     1.0858560000    -0.0696830000 
 C        4.6003660000     0.6349060000    -0.0644910000 
 C        4.4772780000    -0.7624530000    -0.0624630000 
 N        3.2072770000    -1.1401260000    -0.0661120000 
 H        0.6857610000     0.9667190000    -0.0782330000 
 H        0.7093490000    -0.5728280000     0.8119430000 
 H        0.7153820000    -0.5756750000    -0.9632860000 
 H        2.8880360000     2.0824180000    -0.0728250000 
 H        5.4988570000     1.2294290000    -0.0624810000 
 H        5.2565890000    -1.5099060000    -0.0585100000 
*
