! RI PBE def2-SVP def2-SVP/J NBO PAL2
% maxcore 2000
% output
    # printlevel mini
    print[ P_Basis ] 0
    print[ P_SCFInfo ] 1
    print[ P_SCFIterInfo ] 1
    print[ P_OrbEn ] 0
    print[ P_Cartesian ] 0
end
*xyz 0 1
 C        1.1228650000     0.0887300000    -0.2313890000 
 N        2.5262310000     0.0234890000     0.0126900000 
 C        3.3325650000    -1.1850130000     0.0620720000 
 C        4.7397550000    -0.6313900000     0.3544400000 
 C        4.4635410000     0.8493660000     0.4178630000 
 N        3.2351960000     1.1417800000     0.2229700000 
 H        0.7494510000    -0.9262440000    -0.3751280000 
 H        0.8873360000     0.6659510000    -1.1332060000 
 H        0.5780520000     0.5328840000     0.6099240000 
 H        3.2902890000    -1.7306130000    -0.8881160000 
 H        2.9824020000    -1.8651220000     0.8476060000 
 H        5.4587560000    -0.8788410000    -0.4310120000 
 H        5.1518980000    -1.0097120000     1.2936980000 
 H        5.1919620000     1.6253460000     0.6058000000 
*
