! RI PBE def2-SVP def2-SVP/J NBO PAL2
% maxcore 2000
% output
    # printlevel mini
    print[ P_Basis ] 0
    print[ P_SCFInfo ] 1
    print[ P_SCFIterInfo ] 1
    print[ P_OrbEn ] 0
    print[ P_Cartesian ] 0
end
*xyz 0 1
 C        1.0548690000    -0.0608160000     0.0140640000 
 N        2.4880080000    -0.0839010000     0.0504950000 
 C        3.1934090000     0.9647170000     0.7918760000 
 C        4.2476730000    -0.0748760000     1.2042860000 
 N        5.4326110000    -0.0195760000     0.3815660000 
 C        3.1583360000    -1.1149930000     0.8436810000 
 H        0.7087150000     0.8127470000    -0.5445160000 
 H        0.6020030000    -0.0251160000     1.0223100000 
 H        0.6794590000    -0.9520400000    -0.4954160000 
 H        2.6220740000     1.3377850000     1.6568790000 
 H        3.5413760000     1.8128810000     0.1950720000 
 H        4.5453200000    -0.0558950000     2.2530090000 
 H        5.1725960000    -0.0587250000    -0.5978260000 
 H        6.0336580000    -0.8142410000     0.5643290000 
 H        2.5752540000    -1.4225320000     1.7279750000 
 H        3.4692280000    -2.0069370000     0.2893270000 
*
