! RI PBE def2-SVP def2-SVP/J NBO PAL2
% maxcore 2000
% output
    # printlevel mini
    print[ P_Basis ] 0
    print[ P_SCFInfo ] 1
    print[ P_SCFIterInfo ] 1
    print[ P_OrbEn ] 0
    print[ P_Cartesian ] 0
end
*xyz 0 1
 C        2.7902350000    -1.1035340000    -0.1326150000 
 N        2.2690510000     0.2231660000     0.1165620000 
 C        2.8328900000     1.2379610000    -0.7244830000 
 C        2.4145800000     2.6908730000    -0.4629230000 
 C        3.8274200000     3.1282250000    -0.8934560000 
 C        4.3153150000     1.6953710000    -0.6105380000 
 H        2.3402620000    -1.8143320000     0.5634170000 
 H        3.8856350000    -1.1847200000    -0.0451270000 
 H        2.5165350000    -1.4165070000    -1.1443620000 
 H        2.4022160000     0.4746810000     1.0888630000 
 H        2.6204260000     0.9707500000    -1.7664990000 
 H        2.2636090000     2.8536170000     0.6087910000 
 H        1.5504890000     3.0835340000    -1.0005230000 
 H        4.2971950000     3.9446390000    -0.3441750000 
 H        3.8659100000     3.3603960000    -1.9598310000 
 H        4.6658780000     1.5928740000     0.4213370000 
 H        5.0568340000     1.2578160000    -1.2812270000 
*
