! RI PBE def2-SVP def2-SVP/J NBO PAL2
% maxcore 2000
% output
    # printlevel mini
    print[ P_Basis ] 0
    print[ P_SCFInfo ] 1
    print[ P_SCFIterInfo ] 1
    print[ P_OrbEn ] 0
    print[ P_Cartesian ] 0
end
*xyz 0 1
 C        1.2279330000     0.5346010000    -0.0393110000 
 N        1.8767350000    -0.1916850000    -1.1107530000 
 C        2.8716720000    -1.1400390000    -0.6936980000 
 C        4.0818630000    -0.6193000000     0.0445080000 
 C        3.0597760000    -2.3003510000    -1.6212300000 
 C        2.3362970000    -2.4889230000    -0.3182470000 
 H        0.4576310000     1.1852130000    -0.4589590000 
 H        1.8977060000     1.1562650000     0.5742310000 
 H        0.7329120000    -0.1758770000     0.6277620000 
 H        2.2743650000     0.4510860000    -1.7849790000 
 H        3.8012480000    -0.1234010000     0.9777210000 
 H        4.6305990000     0.1022710000    -0.5696810000 
 H        4.7672710000    -1.4313140000     0.2967420000 
 H        4.0549810000    -2.7172370000    -1.7199460000 
 H        2.4621200000    -2.3072140000    -2.5236540000 
 H        2.8357070000    -3.0357950000     0.4724190000 
 H        1.2628850000    -2.6211080000    -0.3635960000 
*
