! RI PBE def2-SVP def2-SVP/J NBO PAL2
% maxcore 2000
% output
    # printlevel mini
    print[ P_Basis ] 0
    print[ P_SCFInfo ] 1
    print[ P_SCFIterInfo ] 1
    print[ P_OrbEn ] 0
    print[ P_Cartesian ] 0
end
*xyz 0 1
 C        1.1580460000    -0.1339060000    -0.3298470000 
 N        2.5515190000    -0.4995440000    -0.4359410000 
 C        3.4126030000     0.2672150000     0.4380160000 
 C        4.8545900000    -0.0864760000     0.2275250000 
 C        5.6319180000     0.5972170000    -0.8588800000 
 C        5.9234520000     0.8974030000     0.5806190000 
 H        0.5676830000    -0.7057670000    -1.0485160000 
 H        0.9606470000     0.9391250000    -0.4965270000 
 H        0.7892880000    -0.3818780000     0.6698110000 
 H        2.8706500000    -0.3934150000    -1.3911680000 
 H        3.1225450000     0.0505670000     1.4736700000 
 H        3.2899400000     1.3599020000     0.3052980000 
 H        5.0845030000    -1.1340210000     0.3928780000 
 H        5.1241950000     1.3628580000    -1.4352660000 
 H        6.3555020000     0.0196950000    -1.4203970000 
 H        5.6126170000     1.8616010000     0.9658220000 
 H        6.8456110000     0.5223330000     1.0061210000 
*
