! RI PBE def2-SVP def2-SVP/J NBO PAL2
% maxcore 2000
% output
    # printlevel mini
    print[ P_Basis ] 0
    print[ P_SCFInfo ] 1
    print[ P_SCFIterInfo ] 1
    print[ P_OrbEn ] 0
    print[ P_Cartesian ] 0
end
*xyz 0 1
 C        2.3621490000     0.0020900000    -1.2623060000 
 N        3.6172050000     0.5622820000    -0.8044300000 
 C        3.6687030000     0.7900080000     0.6267990000 
 C        5.0826990000     0.8012170000     1.1647810000 
 C        6.0513940000    -0.2281930000     0.7588020000 
 N        6.2128390000     1.1583620000     0.3156210000 
 H        2.3751990000    -0.0849020000    -2.3505750000 
 H        1.4757390000     0.5903360000    -0.9757380000 
 H        2.2402330000    -1.0035620000    -0.8521620000 
 H        3.7814800000     1.4352270000    -1.2892590000 
 H        3.1201440000    -0.0201160000     1.1196410000 
 H        3.1618590000     1.7234380000     0.9203470000 
 H        5.1605990000     1.2005240000     2.1728710000 
 H        5.7158490000    -0.9494790000     0.0202730000 
 H        6.7996090000    -0.5810570000     1.4601460000 
 H        5.8939100000     1.2038140000    -0.6482230000 
*
