! RI PBE def2-SVP def2-SVP/J NBO PAL2
% maxcore 2000
% output
    # printlevel mini
    print[ P_Basis ] 0
    print[ P_SCFInfo ] 1
    print[ P_SCFIterInfo ] 1
    print[ P_OrbEn ] 0
    print[ P_Cartesian ] 0
end
*xyz 0 1
 C        0.8980250000    -0.2438570000    -0.1670800000 
 N        2.2733160000     0.1454740000    -0.3644530000 
 C        2.5453130000     0.4133200000    -1.7577270000 
 C        2.6378290000     1.2616050000     0.4862670000 
 C        4.1137820000     1.4871420000     0.5344740000 
 C        4.7069800000     2.6551440000     0.3352820000 
 H        0.6717130000    -1.1221650000    -0.7760490000 
 H        0.1806370000     0.5516540000    -0.4423270000 
 H        0.7290230000    -0.5045060000     0.8803450000 
 H        2.3430400000    -0.4810500000    -2.3513800000 
 H        3.5940550000     0.6834230000    -1.8910940000 
 H        1.9277270000     1.2382380000    -2.1597250000 
 H        2.2901800000     1.0237450000     1.4990230000 
 H        2.1276500000     2.1975060000     0.1868070000 
 H        4.7093620000     0.6070870000     0.7681410000 
 H        4.1349230000     3.5448950000     0.0895390000 
 H        5.7820160000     2.7678660000     0.4154590000 
*
