! RI PBE def2-SVP def2-SVP/J NBO PAL2
% maxcore 2000
% output
    # printlevel mini
    print[ P_Basis ] 0
    print[ P_SCFInfo ] 1
    print[ P_SCFIterInfo ] 1
    print[ P_OrbEn ] 0
    print[ P_Cartesian ] 0
end
*xyz 0 1
 C        0.8955940000     0.1480270000     0.0607990000 
 N        2.3285530000     0.0032690000    -0.0321660000 
 C        2.6995610000    -1.3227890000    -0.4703340000 
 C        2.8879020000     1.0359710000    -0.8832220000 
 C        4.3442740000     1.0603910000    -0.8802150000 
 C        5.5434770000     1.0966610000    -0.8969010000 
 H        0.4963430000    -0.6021150000     0.7462560000 
 H        0.3849330000     0.0249430000    -0.9125720000 
 H        0.6431220000     1.1354070000     0.4547150000 
 H        2.3124820000    -2.0607680000     0.2351180000 
 H        3.7862130000    -1.4136330000    -0.5003490000 
 H        2.3036570000    -1.5658730000    -1.4738750000 
 H        2.5239540000     2.0055680000    -0.5272810000 
 H        2.5418120000     0.9375590000    -1.9315420000 
 H        6.6072330000     1.1286930000    -0.9052400000 
*
