! RI PBE def2-SVP def2-SVP/J NBO PAL2
% maxcore 2000
% output
    # printlevel mini
    print[ P_Basis ] 0
    print[ P_SCFInfo ] 1
    print[ P_SCFIterInfo ] 1
    print[ P_OrbEn ] 0
    print[ P_Cartesian ] 0
end
*xyz 0 1
 C        2.6468230000    -0.7402330000     1.1135110000 
 N        2.3673760000     0.1470360000     0.0055930000 
 C        2.8984460000     1.5116750000     0.0752230000 
 C        2.4069550000     2.2241470000    -1.1795430000 
 C        2.4232760000     2.2826280000     1.3112680000 
 C        4.4231520000     1.4579560000     0.0565690000 
 H        2.1410120000    -1.6915540000     0.9355610000 
 H        2.3287760000    -0.3731560000     2.1016750000 
 H        3.7164450000    -0.9547880000     1.1670500000 
 H        1.3668510000     0.1981490000    -0.1422770000 
 H        1.3132510000     2.2714270000    -1.1965140000 
 H        2.7378860000     1.6904020000    -2.0726600000 
 H        2.7838600000     3.2485010000    -1.2209440000 
 H        1.3306070000     2.3326790000     1.3391340000 
 H        2.8053660000     3.3067850000     1.3021050000 
 H        2.7658350000     1.8134690000     2.2363090000 
 H        4.7709700000     0.8778970000    -0.8009740000 
 H        4.8250690000     1.0033070000     0.9649660000 
 H        4.8371330000     2.4664620000    -0.0140520000 
*
