! RI PBE def2-SVP def2-SVP/J NBO PAL2
% maxcore 2000
% output
    # printlevel mini
    print[ P_Basis ] 0
    print[ P_SCFInfo ] 1
    print[ P_SCFIterInfo ] 1
    print[ P_OrbEn ] 0
    print[ P_Cartesian ] 0
end
*xyz 0 1
 C        0.9512870000    -0.2239520000    -0.1013440000 
 N        2.3631860000     0.0404180000     0.0771900000 
 C        2.9015220000     1.0838560000    -0.7864720000 
 C        2.3453390000     2.4484480000    -0.3966630000 
 C        4.3933180000     1.0771990000    -0.6609770000 
 C        5.2358970000     0.8803740000    -1.6645190000 
 H        0.6802360000    -1.1208970000     0.4585090000 
 H        0.6558810000    -0.3734860000    -1.1537950000 
 H        0.3523280000     0.5971790000     0.2981670000 
 H        2.8871610000    -0.8096170000    -0.0879660000 
 H        2.6451040000     0.8996010000    -1.8465630000 
 H        2.5799280000     2.6658500000     0.6482970000 
 H        1.2612030000     2.4885680000    -0.5192420000 
 H        2.7819560000     3.2271840000    -1.0245140000 
 H        4.7730670000     1.2457350000     0.3453920000 
 H        4.8801340000     0.7037850000    -2.6753160000 
 H        6.3097530000     0.8943360000    -1.5169950000 
*
