! RI PBE def2-SVP def2-SVP/J NBO PAL2
% maxcore 2000
% output
    # printlevel mini
    print[ P_Basis ] 0
    print[ P_SCFInfo ] 1
    print[ P_SCFIterInfo ] 1
    print[ P_OrbEn ] 0
    print[ P_Cartesian ] 0
end
*xyz 0 1
 C        2.6233500000    -1.1973430000     0.6977810000 
 N        2.3004040000     0.0067130000    -0.0398660000 
 C        2.8746920000     0.0647560000    -1.3747930000 
 C        2.3701660000     1.3034440000    -2.1031980000 
 C        4.3448500000     0.0167180000    -1.3827350000 
 C        5.5459310000    -0.0071910000    -1.3480180000 
 H        2.1711620000    -1.1423520000     1.6896240000 
 H        3.7019060000    -1.3780690000     0.8141670000 
 H        2.1909820000    -2.0617920000     0.1861070000 
 H        2.6029130000     0.8221310000     0.4806810000 
 H        2.5148560000    -0.8227190000    -1.9108780000 
 H        2.7018810000     2.2092070000    -1.5896270000 
 H        1.2796950000     1.2929290000    -2.1244180000 
 H        2.7532050000     1.3370140000    -3.1239240000 
 H        6.6098580000    -0.0307470000    -1.3251730000 
*
