! RI PBE def2-SVP def2-SVP/J NBO PAL2
% maxcore 2000
% output
    # printlevel mini
    print[ P_Basis ] 0
    print[ P_SCFInfo ] 1
    print[ P_SCFIterInfo ] 1
    print[ P_OrbEn ] 0
    print[ P_Cartesian ] 0
end
*xyz 0 1
 C        1.0499280000    -1.2522280000     1.9873950000 
 N        2.4887100000    -1.3649480000     1.9129790000 
 C        3.1388790000    -0.1282730000     1.5360030000 
 C        4.6551570000    -0.2640010000     1.4748110000 
 C        5.2779380000     1.0043690000     0.9107000000 
 C        5.2420580000    -0.6105750000     2.8352610000 
 H        0.6113650000    -2.2275390000     2.2083020000 
 H        0.5812970000    -0.8635920000     1.0669360000 
 H        0.7777730000    -0.5763520000     2.8031460000 
 H        2.7408810000    -2.0895330000     1.2514140000 
 H        2.8789140000     0.6306880000     2.2859140000 
 H        2.7711100000     0.2586270000     0.5671030000 
 H        4.8819580000    -1.0880310000     0.7825540000 
 H        5.0662180000     1.8607430000     1.5590330000 
 H        4.8900950000     1.2361360000    -0.0848740000 
 H        6.3638950000     0.9099400000     0.8351450000 
 H        5.0890380000     0.2155800000     3.5375680000 
 H        6.3177850000    -0.7926250000     2.7668390000 
 H        4.7632200000    -1.4968750000     3.2535820000 
*
