! RI PBE def2-SVP def2-SVP/J NBO PAL2
% maxcore 2000
% output
    # printlevel mini
    print[ P_Basis ] 0
    print[ P_SCFInfo ] 1
    print[ P_SCFIterInfo ] 1
    print[ P_OrbEn ] 0
    print[ P_Cartesian ] 0
end
*xyz 0 1
 C        1.0908820000    -0.0091610000    -0.0370260000 
 N        2.5332220000    -0.0953010000    -0.0517100000 
 C        3.0414430000    -1.2709560000     0.6215630000 
 C        4.5570330000    -1.2866000000     0.6403880000 
 C        5.1290090000    -2.5296790000     1.2940920000 
 N        6.5822320000    -2.4644470000     1.3318720000 
 H        0.7694810000     0.9229780000    -0.5060800000 
 H        0.6474310000    -0.0588920000     0.9722470000 
 H        0.6693780000    -0.8331810000    -0.6201100000 
 H        2.9315860000     0.7331090000     0.3733770000 
 H        2.6695610000    -2.1518300000     0.0835460000 
 H        2.6599050000    -1.3610590000     1.6565920000 
 H        4.9357730000    -0.4081920000     1.1753690000 
 H        4.9210060000    -1.2071120000    -0.3903890000 
 H        4.7395020000    -3.4194560000     0.7723590000 
 H        4.7699150000    -2.5931790000     2.3269510000 
 H        6.9558270000    -2.4455220000     0.3901750000 
 H        6.9663230000    -3.2852220000     1.7827050000 
*
