! RI PBE def2-SVP def2-SVP/J NBO PAL2
% maxcore 2000
% output
    # printlevel mini
    print[ P_Basis ] 0
    print[ P_SCFInfo ] 1
    print[ P_SCFIterInfo ] 1
    print[ P_OrbEn ] 0
    print[ P_Cartesian ] 0
end
*xyz 0 1
 C        1.2399860000     0.3806170000    -0.0842030000 
 N        2.6039120000    -0.0694500000     0.0303140000 
 C        3.2483530000     0.0994440000     1.2366010000 
 C        2.7290480000     0.6469450000     2.3363440000 
 C        3.2197420000    -0.6526520000    -1.0641460000 
 N        4.3867740000    -1.1210340000    -1.2059310000 
 H        0.5953090000    -0.1396710000     0.6312130000 
 H        0.8767290000     0.1789330000    -1.0906600000 
 H        1.1661850000     1.4560680000     0.1056850000 
 H        4.2705870000    -0.2587070000     1.2495380000 
 H        1.7166560000     1.0241900000     2.3913840000 
 H        3.3388300000     0.7243450000     3.2252670000 
 H        2.5476110000    -0.6928520000    -1.9228150000 
 H        4.9590660000    -1.0526960000    -0.3679020000 
*
