! RI PBE def2-SVP def2-SVP/J NBO PAL2
% maxcore 2000
% output
    # printlevel mini
    print[ P_Basis ] 0
    print[ P_SCFInfo ] 1
    print[ P_SCFIterInfo ] 1
    print[ P_OrbEn ] 0
    print[ P_Cartesian ] 0
end
*xyz 0 1
 C        0.9321210000     0.2829510000    -0.9907890000 
 N        1.9545320000     0.1869700000     0.0252200000 
 C        2.9524900000     1.2143120000    -0.1563240000 
 C        1.4109450000     0.2193540000     1.3675250000 
 C        0.5806200000    -1.0036250000     1.7183970000 
 N        0.2174250000    -0.9546310000     3.1259880000 
 H        1.3950590000     0.2458840000    -1.9793720000 
 H        0.3489390000     1.2205070000    -0.9221530000 
 H        0.2365420000    -0.5545290000    -0.9215670000 
 H        3.3923730000     1.1324660000    -1.1531650000 
 H        3.7523260000     1.0917480000     0.5776070000 
 H        2.5445180000     2.2365660000    -0.0486310000 
 H        0.8056150000     1.1267270000     1.5506790000 
 H        2.2568290000     0.2652210000     2.0631310000 
 H        1.1458970000    -1.9004590000     1.4229360000 
 H       -0.3478050000    -1.0054300000     1.1407400000 
 H        1.0349550000    -1.0906210000     3.7084540000 
 H       -0.4329820000    -1.6946120000     3.3548360000 
*
