! RI PBE def2-SVP def2-SVP/J NBO PAL2
% maxcore 2000
% output
    # printlevel mini
    print[ P_Basis ] 0
    print[ P_SCFInfo ] 1
    print[ P_SCFIterInfo ] 1
    print[ P_OrbEn ] 0
    print[ P_Cartesian ] 0
end
*xyz 0 1
 C        1.1214250000     0.0663180000    -0.2707630000 
 N        2.5319120000    -0.0819140000    -0.0237280000 
 C        3.2888810000     1.0345560000     0.4933800000 
 C        3.1184960000    -1.2942490000    -0.2914950000 
 C        4.5904100000    -1.3975210000    -0.0170040000 
 N        2.5194250000    -2.3284450000    -0.7496020000 
 H        0.8099690000     1.0761630000    -0.0102960000 
 H        0.5278490000    -0.6349320000     0.3287330000 
 H        0.8736730000    -0.1014460000    -1.3262150000 
 H        2.6210860000     1.8839730000     0.6275260000 
 H        4.0865320000     1.3494020000    -0.1873630000 
 H        3.7417770000     0.8172120000     1.4662200000 
 H        4.8187400000    -1.2088400000     1.0352590000 
 H        5.1627030000    -0.6791620000    -0.6098180000 
 H        4.9089910000    -2.4042100000    -0.2745210000 
 H        1.5285210000    -2.1623840000    -0.9032840000 
*
