! RI PBE def2-SVP def2-SVP/J NBO PAL2
% maxcore 2000
% output
    # printlevel mini
    print[ P_Basis ] 0
    print[ P_SCFInfo ] 1
    print[ P_SCFIterInfo ] 1
    print[ P_OrbEn ] 0
    print[ P_Cartesian ] 0
end
*xyz 0 1
 C        0.8408590000     0.1286730000    -0.3047880000 
 N        2.2567560000     0.0117160000    -0.0400530000 
 C        2.5239460000    -0.2341930000     1.3606490000 
 C        2.8496030000    -0.9918440000    -0.8926430000 
 C        4.3083860000    -0.9992290000    -0.8082090000 
 N        5.4551860000    -1.0246910000    -0.7430090000 
 H        0.4243860000     0.9309800000     0.3063800000 
 H        0.2817680000    -0.7973000000    -0.0787490000 
 H        0.6752290000     0.3816370000    -1.3543900000 
 H        2.1111960000     0.5826350000     1.9547060000 
 H        3.6004720000    -0.2711310000     1.5359290000 
 H        2.0798250000    -1.1802110000     1.7188470000 
 H        2.5788700000    -0.7841470000    -1.9320570000 
 H        2.4975160000    -2.0168820000    -0.6665030000 
*
