! RI PBE def2-SVP def2-SVP/J NBO PAL2
% maxcore 2000
% output
    # printlevel mini
    print[ P_Basis ] 0
    print[ P_SCFInfo ] 1
    print[ P_SCFIterInfo ] 1
    print[ P_OrbEn ] 0
    print[ P_Cartesian ] 0
end
*xyz 0 1
 C        2.9415610000     0.2992010000     1.1498980000 
 N        2.6957770000     0.2211950000    -0.2725170000 
 C        3.1347540000    -1.0126150000    -0.9019540000 
 C        2.4811710000    -1.1359400000    -2.2695450000 
 C        4.6602080000    -1.1412100000    -0.9993810000 
 N        5.2224980000    -0.0445930000    -1.7757810000 
 H        2.5882290000     1.2619050000     1.5258310000 
 H        3.9961130000     0.1923220000     1.4526920000 
 H        2.3706810000    -0.4803990000     1.6631840000 
 H        3.1670500000     0.9870460000    -0.7430310000 
 H        2.7801910000    -1.8403220000    -0.2746010000 
 H        2.7539240000    -0.2897710000    -2.9070300000 
 H        1.3952490000    -1.1301020000    -2.1693960000 
 H        2.7834790000    -2.0576830000    -2.7747220000 
 H        4.9106530000    -2.1379390000    -1.3946010000 
 H        5.0851880000    -1.0900140000     0.0068610000 
 H        5.1037110000    -0.2019860000    -2.7681230000 
 H        6.2148540000     0.0481050000    -1.6081550000 
*
