! RI PBE def2-SVP def2-SVP/J NBO PAL2
% maxcore 2000
% output
    # printlevel mini
    print[ P_Basis ] 0
    print[ P_SCFInfo ] 1
    print[ P_SCFIterInfo ] 1
    print[ P_OrbEn ] 0
    print[ P_Cartesian ] 0
end
*xyz 0 1
 C        2.6323050000     1.0668800000    -0.9019730000 
 N        2.3034080000    -0.0216950000    -0.0026100000 
 C        2.8636520000     0.0995090000     1.3242280000 
 C        2.3963270000    -1.0401730000     2.2178050000 
 C        4.3417810000     0.1684570000     1.3157650000 
 N        5.4902670000     0.2046740000     1.2563520000 
 H        2.1756920000     0.8762590000    -1.8740240000 
 H        3.7115490000     1.2190890000    -1.0468310000 
 H        2.2079610000     1.9968870000    -0.5144160000 
 H        2.5776440000    -0.9098520000    -0.4053740000 
 H        2.5132950000     1.0496930000     1.7444580000 
 H        2.7366910000    -2.0007270000     1.8245880000 
 H        1.3066840000    -1.0411960000     2.2504970000 
 H        2.7892740000    -0.9305740000     3.2291560000 
*
