! RI PBE def2-SVP def2-SVP/J NBO PAL2
% maxcore 2000
% output
    # printlevel mini
    print[ P_Basis ] 0
    print[ P_SCFInfo ] 1
    print[ P_SCFIterInfo ] 1
    print[ P_OrbEn ] 0
    print[ P_Cartesian ] 0
end
*xyz 0 1
 C        2.4751390000     0.8232600000     0.3808110000 
 N        3.8300420000     0.3835530000     0.1299300000 
 C        3.9016700000    -0.7671380000    -0.7478320000 
 C        5.3392410000    -1.0532440000    -1.1732780000 
 C        5.8441220000    -0.0295300000    -2.1826480000 
 N        6.1738440000    -1.1560510000     0.0231870000 
 H        2.4785970000     1.6360130000     1.1102190000 
 H        1.8081110000     0.0286460000     0.7555900000 
 H        2.0372110000     1.2113010000    -0.5431540000 
 H        4.2659140000     0.1314840000     1.0090070000 
 H        3.3009630000    -0.5546130000    -1.6388380000 
 H        3.4786100000    -1.6724530000    -0.2811570000 
 H        5.3387870000    -2.0429510000    -1.6431980000 
 H        5.7799030000     0.9759790000    -1.7587970000 
 H        5.2511170000    -0.0466270000    -3.1016750000 
 H        6.8851810000    -0.2285370000    -2.4505140000 
 H        6.4100870000    -0.2227850000     0.3438020000 
 H        7.0522610000    -1.6064770000    -0.2011360000 
*
