! RI PBE def2-SVP def2-SVP/J NBO PAL2
% maxcore 2000
% output
    # printlevel mini
    print[ P_Basis ] 0
    print[ P_SCFInfo ] 1
    print[ P_SCFIterInfo ] 1
    print[ P_OrbEn ] 0
    print[ P_Cartesian ] 0
end
*xyz 0 1
 C        1.3731930000    -0.2386050000    -0.2953080000 
 N        2.8020030000    -0.0596350000    -0.1423930000 
 C        3.1541660000     1.2236430000     0.4159150000 
 C        4.6629870000     1.2949280000     0.6376220000 
 C        5.0750160000     2.5575830000     1.2264640000 
 N        5.3822900000     3.5619250000     1.6938410000 
 H        1.1735070000    -1.2017340000    -0.7678310000 
 H        0.8844010000     0.5481420000    -0.8920530000 
 H        0.9001240000    -0.2497680000     0.6901090000 
 H        3.2583590000    -0.1801680000    -1.0388160000 
 H        2.6470810000     1.3303920000     1.3795790000 
 H        2.8345470000     2.0787230000    -0.2031520000 
 H        5.1932490000     1.1716720000    -0.3125090000 
 H        4.9762880000     0.4751130000     1.2892410000 
*
