! RI PBE def2-SVP def2-SVP/J NBO PAL2
% maxcore 2000
% output
    # printlevel mini
    print[ P_Basis ] 0
    print[ P_SCFInfo ] 1
    print[ P_SCFIterInfo ] 1
    print[ P_OrbEn ] 0
    print[ P_Cartesian ] 0
end
*xyz 0 1
 C        0.9950390000    -0.0142400000     0.1812520000 
 N        2.4375260000     0.0338860000     0.0999370000 
 C        2.9204930000     0.4177040000    -1.2084560000 
 C        4.4350320000     0.4607900000    -1.2414780000 
 N        4.9179450000     0.8452160000    -2.5497140000 
 C        6.3604490000     0.8922910000    -2.6314010000 
 H        0.6908320000    -0.3677470000     1.1684960000 
 H        0.5228440000    -0.6603400000    -0.5780120000 
 H        0.5882730000     0.9930210000     0.0528440000 
 H        2.8230340000    -0.8691910000     0.3482470000 
 H        2.5258750000     1.4181600000    -1.4296060000 
 H        2.5637520000    -0.2431930000    -2.0171520000 
 H        4.8296800000    -0.5397630000    -1.0208320000 
 H        4.7917800000     1.1213100000    -0.4324730000 
 H        4.5330870000     1.7487930000    -2.7972080000 
 H        6.7664680000    -0.1153990000    -2.5040040000 
 H        6.8333760000     1.5373680000    -1.8717240000 
 H        6.6646330000     1.2464340000    -3.6184240000 
*
