! RI PBE def2-SVP def2-SVP/J NBO PAL2
% maxcore 2000
% output
    # printlevel mini
    print[ P_Basis ] 0
    print[ P_SCFInfo ] 1
    print[ P_SCFIterInfo ] 1
    print[ P_OrbEn ] 0
    print[ P_Cartesian ] 0
end
*xyz 0 1
 C        1.2839640000     0.1692780000     0.2068890000 
 N        2.6345770000    -0.0391430000     0.6534000000 
 C        3.2255600000    -1.0724660000     0.2632980000 
 N        4.5496160000    -1.3557490000     0.6520950000 
 C        4.8309780000    -2.7833480000     0.8048710000 
 C        5.3311350000    -2.0553280000    -0.3678640000 
 H        1.2240070000     1.1230330000    -0.3242260000 
 H        0.6264770000     0.2517840000     1.0765110000 
 H        0.9023480000    -0.6261190000    -0.4506130000 
 H        2.7453500000    -1.8169970000    -0.4043110000 
 H        4.0087600000    -3.4774040000     0.6488930000 
 H        5.4892060000    -3.0251510000     1.6308100000 
 H        4.8493490000    -2.2538520000    -1.3220990000 
 H        6.3677950000    -1.7463380000    -0.4292540000 
*
