! RI PBE def2-SVP def2-SVP/J NBO PAL2
% maxcore 2000
% output
    # printlevel mini
    print[ P_Basis ] 0
    print[ P_SCFInfo ] 1
    print[ P_SCFIterInfo ] 1
    print[ P_OrbEn ] 0
    print[ P_Cartesian ] 0
end
*xyz 0 1
 C        1.0694650000    -0.6361730000     0.2720540000 
 N        2.4982190000    -0.5825800000     0.1663280000 
 C        3.1626910000    -0.8794050000    -0.9844210000 
 N        2.6285200000    -1.2354910000    -2.0944940000 
 C        4.6355010000    -0.7858570000    -0.9629230000 
 C        5.4088650000    -0.4391250000     0.0585280000 
 H        0.7756910000    -0.3583460000     1.2836520000 
 H        0.6841960000    -1.6430260000     0.0725140000 
 H        0.5837300000     0.0579380000    -0.4238270000 
 H        3.0286240000    -0.3165230000     0.9733580000 
 H        1.6134310000    -1.2767940000    -2.0300050000 
 H        5.0741920000    -1.0417740000    -1.9208590000 
 H        5.0273090000    -0.1726310000     1.0392990000 
 H        6.4862460000    -0.4068020000    -0.0488050000 
*
