! RI PBE def2-SVP def2-SVP/J NBO PAL2
% maxcore 2000
% output
    # printlevel mini
    print[ P_Basis ] 0
    print[ P_SCFInfo ] 1
    print[ P_SCFIterInfo ] 1
    print[ P_OrbEn ] 0
    print[ P_Cartesian ] 0
end
*xyz 0 1
 C        1.3241230000    -0.7365240000    -0.2046070000 
 N        2.5918020000    -0.6791330000    -0.1989980000 
 N        3.2056230000     0.3243610000    -0.8511100000 
 C        4.5703600000     0.0246750000    -1.2358870000 
 C        5.2067350000     1.1866030000    -1.8352930000 
 C        5.7255160000     2.1368360000    -2.3515310000 
 H        0.8498430000    -1.5202180000     0.3732620000 
 H        0.6944140000    -0.0267510000    -0.7505810000 
 H        2.6618660000     0.7818740000    -1.5786000000 
 H        4.6302280000    -0.8186740000    -1.9400360000 
 H        5.1098970000    -0.2761160000    -0.3337610000 
 H        6.1914920000     2.9818660000    -2.8007590000 
*
