! RI PBE def2-SVP def2-SVP/J NBO PAL2
% maxcore 2000
% output
    # printlevel mini
    print[ P_Basis ] 0
    print[ P_SCFInfo ] 1
    print[ P_SCFIterInfo ] 1
    print[ P_OrbEn ] 0
    print[ P_Cartesian ] 0
end
*xyz 0 1
 C        1.4017160000     0.9496600000    -0.0144940000 
 N        2.7974790000     0.6422870000     0.0473690000 
 N        3.2473900000    -0.0648170000     1.0845320000 
 C        4.4907780000    -0.3551530000     1.1672830000 
 C        5.4955980000     0.0655890000     0.1381510000 
 C        4.9484630000    -1.1485570000     2.3456250000 
 H        1.2137310000     1.5279390000    -0.9204690000 
 H        1.0771430000     1.5462980000     0.8452280000 
 H        0.7861160000     0.0441270000    -0.0532170000 
 H        3.4193670000     0.9562920000    -0.6792460000 
 H        5.2473220000    -0.3362990000    -0.8525410000 
 H        6.4961140000    -0.2818530000     0.3946080000 
 H        5.5371440000     1.1580820000     0.0413690000 
 H        4.1028560000    -1.3731260000     2.9950680000 
 H        5.7016150000    -0.6022830000     2.9249730000 
 H        5.4131690000    -2.0912060000     2.0345510000 
*
