! RI PBE def2-SVP def2-SVP/J NBO PAL2
% maxcore 2000
% output
    # printlevel mini
    print[ P_Basis ] 0
    print[ P_SCFInfo ] 1
    print[ P_SCFIterInfo ] 1
    print[ P_OrbEn ] 0
    print[ P_Cartesian ] 0
end
*xyz 0 1
 C        3.3189770000     1.0364670000    -1.1497250000 
 N        4.2677670000     0.2014610000    -0.4764620000 
 N        4.0064490000    -0.2209590000     0.7451360000 
 C        4.8522280000    -0.9697250000     1.3541440000 
 C        4.5841040000    -1.4401560000     2.6876840000 
 C        5.4076440000    -2.2204030000     3.3912540000 
 H        3.7122220000     1.2777900000    -2.1378730000 
 H        3.1499100000     1.9732900000    -0.6087850000 
 H        2.3555250000     0.5320490000    -1.2768890000 
 H        5.1306580000    -0.0641080000    -0.9308650000 
 H        5.7944440000    -1.2675560000     0.8761930000 
 H        3.6380110000    -1.1153740000     3.1122310000 
 H        6.3566640000    -2.5549050000     2.9842100000 
 H        5.1587870000    -2.5474900000     4.3926470000 
*
