! RI PBE def2-SVP def2-SVP/J NBO PAL2
% maxcore 2000
% output
    # printlevel mini
    print[ P_Basis ] 0
    print[ P_SCFInfo ] 1
    print[ P_SCFIterInfo ] 1
    print[ P_OrbEn ] 0
    print[ P_Cartesian ] 0
end
*xyz 0 1
 N        1.0111610000    -0.0301570000     0.1119350000 
 C        2.4378340000    -0.1300380000     0.0674830000 
 C        3.1898770000    -0.8865860000    -0.9829840000 
 C        3.1832230000     0.6315940000    -0.9906470000 
 C        4.3688980000     1.3627250000    -0.6676650000 
 C        5.3694070000     1.9698920000    -0.3942410000 
 H        0.6039940000    -0.8894390000     0.4619450000 
 H        0.6265580000     0.1315170000    -0.8104900000 
 H        2.8945410000    -0.1046700000     1.0508760000 
 H        2.6169170000    -1.3743580000    -1.7628360000 
 H        4.1193890000    -1.3727880000    -0.7149800000 
 H        2.5617100000     1.0924710000    -1.7532410000 
 H        6.2521990000     2.5114480000    -0.1506560000 
*
