! RI PBE def2-SVP def2-SVP/J NBO PAL2
% maxcore 2000
% output
    # printlevel mini
    print[ P_Basis ] 0
    print[ P_SCFInfo ] 1
    print[ P_SCFIterInfo ] 1
    print[ P_OrbEn ] 0
    print[ P_Cartesian ] 0
end
*xyz 0 1
 N        0.9673610000     0.0098410000    -0.1613320000 
 C        2.3947730000     0.1235650000    -0.0191250000 
 C        3.0958660000     1.1466170000     0.9085820000 
 C        4.1508680000     0.0639320000     1.2044340000 
 C        3.1240210000    -0.9897710000     0.7623090000 
 N        3.5992730000    -2.2023160000     0.1534440000 
 H        0.5853950000     0.7581460000    -0.7260250000 
 H        0.5132030000     0.0540240000     0.7433910000 
 H        2.8366720000     0.1872330000    -1.0203660000 
 H        2.4812610000     1.3537550000     1.7895480000 
 H        3.4284810000     2.0930160000     0.4797210000 
 H        4.5586790000    -0.0113090000     2.2122880000 
 H        4.9803350000     0.1137600000     0.4930810000 
 H        2.5014220000    -1.2617740000     1.6239850000 
 H        4.1356040000    -1.9926810000    -0.6806040000 
 H        2.8220760000    -2.7867490000    -0.1304320000 
*
