! RI PBE def2-SVP def2-SVP/J NBO PAL2
% maxcore 2000
% output
    # printlevel mini
    print[ P_Basis ] 0
    print[ P_SCFInfo ] 1
    print[ P_SCFIterInfo ] 1
    print[ P_OrbEn ] 0
    print[ P_Cartesian ] 0
end
*xyz 0 1
 N        1.0688000000     0.0083940000    -0.0910970000 
 C        2.4959520000     0.0488460000     0.1582140000 
 C        3.0469650000     1.1722700000     1.0400880000 
 C        4.4632870000     0.7089910000     1.3646830000 
 C        4.3709960000    -0.8329630000     1.4472040000 
 C        2.9931690000    -1.2038450000     0.8756590000 
 H        0.7624460000     0.8506050000    -0.5628940000 
 H        0.5640180000    -0.0380500000     0.7875760000 
 H        2.9921750000     0.1106370000    -0.8195290000 
 H        2.4394840000     1.2283600000     1.9523990000 
 H        3.0095980000     2.1536520000     0.5596210000 
 H        4.8574080000     1.1559130000     2.2793910000 
 H        5.1401960000     1.0012300000     0.5566980000 
 H        4.4762710000    -1.1839070000     2.4757470000 
 H        5.1773260000    -1.3002720000     0.8780420000 
 H        2.2914010000    -1.4338750000     1.6860650000 
 H        3.0123870000    -2.0751060000     0.2192350000 
*
