! RI PBE def2-SVP def2-SVP/J NBO PAL2
% maxcore 2000
% output
    # printlevel mini
    print[ P_Basis ] 0
    print[ P_SCFInfo ] 1
    print[ P_SCFIterInfo ] 1
    print[ P_OrbEn ] 0
    print[ P_Cartesian ] 0
end
*xyz 0 1
 N        0.8414840000     0.0357090000     0.2268010000 
 C        2.2930280000     0.0346500000     0.1152160000 
 C        2.8506330000     1.2052450000    -0.6402130000 
 C        3.6696220000     0.7639190000    -1.6023080000 
 C        3.6686840000    -0.7002680000    -1.6006520000 
 C        2.8491310000    -1.1383670000    -0.6375640000 
 H        0.5328340000     0.8496730000     0.7448570000 
 H        0.5317960000    -0.7765850000     0.7468530000 
 H        2.8063570000     0.0354350000     1.1007940000 
 H        2.6315890000     2.2354920000    -0.3923790000 
 H        4.2482450000     1.3767410000    -2.2817750000 
 H        4.2465170000    -1.3153650000    -2.2787350000 
 H        2.6287600000    -2.1677680000    -0.3874050000 
*
