! RI PBE def2-SVP def2-SVP/J NBO PAL2
% maxcore 2000
% output
    # printlevel mini
    print[ P_Basis ] 0
    print[ P_SCFInfo ] 1
    print[ P_SCFIterInfo ] 1
    print[ P_OrbEn ] 0
    print[ P_Cartesian ] 0
end
*xyz 0 1
 N        1.0904450000     0.0181470000    -0.0286430000 
 C        2.5564810000     0.0053030000    -0.0276600000 
 C        3.0942030000    -1.2655440000     0.6513130000 
 C        3.3894590000    -0.8725820000     2.1065890000 
 C        3.5073990000     0.6197600000     2.0309540000 
 C        3.0742640000     1.0958610000     0.8705200000 
 H        0.7364320000    -0.5958220000    -0.7535370000 
 H        0.7461300000     0.9475080000    -0.2397180000 
 H        2.9681890000     0.1035150000    -1.0436990000 
 H        4.0231060000    -1.5687390000     0.1614760000 
 H        2.3860970000    -2.0920370000     0.5668340000 
 H        4.2954360000    -1.3501820000     2.4907740000 
 H        2.5763860000    -1.1534100000     2.7859090000 
 H        3.8739350000     1.2261390000     2.8520080000 
 H        3.0294290000     2.1457710000     0.6011810000 
*
