! RI PBE def2-SVP def2-SVP/J NBO PAL2
% maxcore 2000
% output
    # printlevel mini
    print[ P_Basis ] 0
    print[ P_SCFInfo ] 1
    print[ P_SCFIterInfo ] 1
    print[ P_OrbEn ] 0
    print[ P_Cartesian ] 0
end
*xyz 0 1
 N        0.9140920000    -0.1036410000     0.0929780000 
 C        2.1750170000     0.0024640000     0.0897230000 
 C        3.0304040000     1.2174440000     0.0897690000 
 C        4.2921650000     0.7822970000     0.0854510000 
 C        4.2067760000    -0.6959290000     0.0827700000 
 N        3.0092210000    -1.1490230000     0.0851640000 
 H        0.4866910000     0.8230370000     0.0959790000 
 H        2.6636070000     2.2338510000     0.0927780000 
 H        5.2039630000     1.3631750000     0.0840930000 
 H        5.0633640000    -1.3633750000     0.0791040000 
*
