! RI PBE def2-SVP def2-SVP/J NBO PAL2
% maxcore 2000
% output
    # printlevel mini
    print[ P_Basis ] 0
    print[ P_SCFInfo ] 1
    print[ P_SCFIterInfo ] 1
    print[ P_OrbEn ] 0
    print[ P_Cartesian ] 0
end
*xyz 0 1
 N        1.0997290000     0.2277370000     0.3657870000 
 C        2.3263800000     0.0813600000     0.0728430000 
 C        3.1918670000    -1.1622540000    -0.0986790000 
 C        4.5434620000    -0.6074790000    -0.4439800000 
 C        4.4517430000     0.7229800000    -0.4629850000 
 N        3.1656080000     1.1467910000    -0.1638530000 
 H        0.6542080000    -0.6744170000     0.5016980000 
 H        2.7766510000    -1.8025800000    -0.8836390000 
 H        3.1915860000    -1.7493690000     0.8253930000 
 H        5.4312340000    -1.1865880000    -0.6415260000 
 H        5.2209570000     1.4524450000    -0.6723580000 
 H        2.8499850000     2.0984740000    -0.1169320000 
*
