! RI PBE def2-SVP def2-SVP/J NBO PAL2
% maxcore 2000
% output
    # printlevel mini
    print[ P_Basis ] 0
    print[ P_SCFInfo ] 1
    print[ P_SCFIterInfo ] 1
    print[ P_OrbEn ] 0
    print[ P_Cartesian ] 0
end
*xyz 0 1
 N        0.9782170000    -0.1595000000    -0.1942090000 
 C        2.3691730000     0.0330510000    -0.1160310000 
 C        3.1694380000     1.1436770000     0.0113020000 
 C        4.5157150000     0.6990980000    -0.0051100000 
 C        4.4963060000    -0.6654340000    -0.1344470000 
 N        3.1901360000    -1.0532440000    -0.2051250000 
 H        0.5342220000     0.5686410000    -0.7352210000 
 H        0.5392940000    -0.1888510000     0.7177120000 
 H        2.8206760000     2.1598020000     0.1156170000 
 H        5.4002380000     1.3114240000     0.0762230000 
 H        5.2996040000    -1.3825570000    -0.1800800000 
 H        2.8498800000    -1.9857080000    -0.3577320000 
*
