! RI PBE def2-SVP def2-SVP/J NBO PAL2
% maxcore 2000
% output
    # printlevel mini
    print[ P_Basis ] 0
    print[ P_SCFInfo ] 1
    print[ P_SCFIterInfo ] 1
    print[ P_OrbEn ] 0
    print[ P_Cartesian ] 0
end
*xyz 0 1
 N        0.9980920000    -0.0148580000     0.2948690000 
 C        2.4323240000     0.0500050000     0.0876290000 
 C        3.1984350000     1.2758530000     0.6594020000 
 C        4.2465150000     0.6783690000     1.5975350000 
 N        4.4610160000    -0.6417320000     1.0264140000 
 C        3.1308490000    -1.1424930000     0.7454700000 
 H        0.5289820000     0.7345990000    -0.1979600000 
 H        0.7758140000     0.0897750000     1.2785460000 
 H        2.5979400000     0.0016170000    -0.9913770000 
 H        2.5194210000     1.9565840000     1.1776850000 
 H        3.6792790000     1.8366960000    -0.1445870000 
 H        3.8467060000     0.6333830000     2.6258820000 
 H        5.1764720000     1.2507330000     1.6280640000 
 H        4.9875220000    -1.2514860000     1.6377150000 
 H        2.5675180000    -1.4113900000     1.6585360000 
 H        3.1575160000    -2.0226540000     0.1004760000 
*
