! RI PBE def2-SVP def2-SVP/J NBO PAL2
% maxcore 2000
% output
    # printlevel mini
    print[ P_Basis ] 0
    print[ P_SCFInfo ] 1
    print[ P_SCFIterInfo ] 1
    print[ P_OrbEn ] 0
    print[ P_Cartesian ] 0
end
*xyz 0 1
 N        1.0064160000    -0.0711570000    -0.0029910000 
 C        2.4450570000    -0.0257420000     0.0077800000 
 C        3.2482880000     1.0397640000     0.8000970000 
 C        4.2507910000    -0.0589830000     1.2021620000 
 N        5.4588920000    -0.0199960000     0.4017660000 
 C        3.1698640000    -1.1072910000     0.8246730000 
 H        0.6177650000     0.6917370000    -0.5436970000 
 H        0.6392370000     0.0085600000     0.9383520000 
 H        2.7814540000    -0.0487400000    -1.0333760000 
 H        2.6752810000     1.3961310000     1.6601940000 
 H        3.6549410000     1.8995230000     0.2626090000 
 H        4.5495870000    -0.0614720000     2.2524450000 
 H        5.2365010000     0.0165610000    -0.5865030000 
 H        6.0071040000    -0.8598580000     0.5470200000 
 H        2.5702080000    -1.3938120000     1.6944040000 
 H        3.4952170000    -2.0138240000     0.3094640000 
*
