! RI PBE def2-SVP def2-SVP/J NBO PAL2
% maxcore 2000
% output
    # printlevel mini
    print[ P_Basis ] 0
    print[ P_SCFInfo ] 1
    print[ P_SCFIterInfo ] 1
    print[ P_OrbEn ] 0
    print[ P_Cartesian ] 0
end
*xyz 0 1
 N        3.3884410000    -0.0526170000     0.9235160000 
 C        2.3347770000     0.0504060000    -0.0755450000 
 C        2.8645400000     0.6581320000    -1.3396630000 
 C        1.9234240000     1.3140340000    -2.3109100000 
 C        2.8695080000     2.1545500000    -1.5228430000 
 N        3.9111790000     2.8707270000    -2.1988130000 
 H        3.0401210000    -0.4818840000     1.7715290000 
 H        3.7217680000     0.8710520000     1.1726700000 
 H        1.4620900000     0.6397820000     0.2537950000 
 H        1.9653830000    -0.9607520000    -0.2793340000 
 H        3.7123410000     0.1347520000    -1.7723880000 
 H        0.8689560000     1.3510820000    -2.0632470000 
 H        2.1256110000     1.1926560000    -3.3692840000 
 H        2.4201230000     2.7250790000    -0.7129250000 
 H        4.0781370000     2.4854820000    -3.1189210000 
 H        4.7827900000     2.8196080000    -1.6856590000 
*
