! RI PBE def2-SVP def2-SVP/J NBO PAL2
% maxcore 2000
% output
    # printlevel mini
    print[ P_Basis ] 0
    print[ P_SCFInfo ] 1
    print[ P_SCFIterInfo ] 1
    print[ P_OrbEn ] 0
    print[ P_Cartesian ] 0
end
*xyz 0 1
 N        0.8925210000     0.0324490000    -0.0921170000 
 C        2.0431390000     0.0330430000    -0.0739320000 
 C        3.4888930000     0.0337540000    -0.0165770000 
 C        4.1981940000     1.1088570000     0.8436280000 
 C        5.2189040000     0.0326740000     1.2562040000 
 C        4.1994520000    -1.0433410000     0.8400900000 
 H        3.8829360000     0.0356600000    -1.0359650000 
 H        3.5669670000     1.4096290000     1.6807760000 
 H        4.5544860000     1.9990080000     0.3260060000 
 H        5.5590310000     0.0311650000     2.2912540000 
 H        6.0919010000     0.0342620000     0.6004320000 
 H        3.5685900000    -1.3475920000     1.6762570000 
 H        4.5567780000    -1.9313690000     0.3195450000 
*
