! RI PBE def2-SVP def2-SVP/J NBO PAL2
% maxcore 2000
% output
    # printlevel mini
    print[ P_Basis ] 0
    print[ P_SCFInfo ] 1
    print[ P_SCFIterInfo ] 1
    print[ P_OrbEn ] 0
    print[ P_Cartesian ] 0
end
*xyz 0 1
 N        3.1002730000    -1.0298890000     0.5497930000 
 C        2.3231800000     0.0732590000     0.0109230000 
 C        3.1410880000     1.3377090000    -0.0098600000 
 C        2.4675210000     2.6239210000    -0.5124970000 
 C        2.9830480000     3.2800660000     0.7772850000 
 N        3.4122000000     1.9644610000     1.3165410000 
 H        2.5290830000    -1.8559560000     0.6707810000 
 H        3.4795860000    -0.7882400000     1.4573220000 
 H        1.3864920000     0.2782060000     0.5603160000 
 H        2.0373710000    -0.1711610000    -1.0188590000 
 H        4.0906660000     1.1294830000    -0.5149830000 
 H        1.3779530000     2.5391600000    -0.5408420000 
 H        2.8169420000     3.0322860000    -1.4617200000 
 H        2.2485050000     3.8136260000     1.3847850000 
 H        3.8425030000     3.9386720000     0.6244660000 
 H        2.7341300000     1.6346980000     1.9962390000 
*
