! RI PBE def2-SVP def2-SVP/J NBO PAL2
% maxcore 2000
% output
    # printlevel mini
    print[ P_Basis ] 0
    print[ P_SCFInfo ] 1
    print[ P_SCFIterInfo ] 1
    print[ P_OrbEn ] 0
    print[ P_Cartesian ] 0
end
*xyz 0 1
 N        2.7950960000    -0.8054810000    -1.3019700000 
 C        2.4041790000    -0.0371000000    -0.1328560000 
 C        2.9079920000    -0.6198530000     1.1740350000 
 N        2.4694960000     0.0592900000     2.3622970000 
 C        3.0897790000    -2.0994530000     1.3169850000 
 C        4.2853980000    -1.1930270000     1.2360570000 
 H        2.7163460000    -0.2475070000    -2.1410100000 
 H        2.1937210000    -1.6098000000    -1.4235540000 
 H        1.3126760000     0.0952900000    -0.0399270000 
 H        2.8273390000     0.9692970000    -0.2346270000 
 H        1.4571590000     0.0724690000     2.4179150000 
 H        2.7861200000     1.0224730000     2.3626540000 
 H        2.8949240000    -2.7365340000     0.4632920000 
 H        2.8418620000    -2.5235840000     2.2813470000 
 H        4.8504240000    -1.2130100000     0.3128430000 
 H        4.8464690000    -1.0185380000     2.1449370000 
*
