! RI PBE def2-SVP def2-SVP/J NBO PAL2
% maxcore 2000
% output
    # printlevel mini
    print[ P_Basis ] 0
    print[ P_SCFInfo ] 1
    print[ P_SCFIterInfo ] 1
    print[ P_OrbEn ] 0
    print[ P_Cartesian ] 0
end
*xyz 0 1
 N        2.0796960000    -0.6679750000     1.9529520000 
 C        2.7623550000    -0.3980270000     1.0686980000 
 C        3.6289090000    -0.0503290000    -0.0504290000 
 C        4.3078380000     1.2866850000     0.1268220000 
 C        4.6120740000     2.0964400000    -1.0667930000 
 N        3.5824220000     2.5190200000    -0.1226130000 
 H        3.0268330000    -0.0507550000    -0.9651310000 
 H        4.3767180000    -0.8422970000    -0.1613060000 
 H        4.9768790000     1.3388750000     0.9807660000 
 H        4.3078370000     1.7010860000    -2.0318310000 
 H        5.4997740000     2.7183310000    -1.0896090000 
 H        2.6537660000     2.3291440000    -0.4854360000 
*
