! RI PBE def2-SVP def2-SVP/J NBO PAL2
% maxcore 2000
% output
    # printlevel mini
    print[ P_Basis ] 0
    print[ P_SCFInfo ] 1
    print[ P_SCFIterInfo ] 1
    print[ P_OrbEn ] 0
    print[ P_Cartesian ] 0
end
*xyz 0 1
 N        0.9570050000     0.2849740000    -0.3042660000 
 C        2.3705320000     0.0469700000     0.0004520000 
 C        2.6346990000    -0.1392720000     1.4762960000 
 C        3.1790430000    -1.1979750000     2.0551810000 
 C        2.8666640000    -1.0632060000    -0.8069660000 
 C        3.2722230000    -1.9838060000    -1.4604580000 
 H        0.6308480000     1.0908370000     0.2171280000 
 H        0.4110110000    -0.5107880000     0.0069230000 
 H        2.9107300000     0.9469060000    -0.3237220000 
 H        2.3036830000     0.7002900000     2.0854720000 
 H        3.5224030000    -2.0447240000     1.4706020000 
 H        3.3002080000    -1.2472790000     3.1310160000 
 H        3.6291600000    -2.7926360000    -2.0531560000 
*
