! RI PBE def2-SVP def2-SVP/J NBO PAL2
% maxcore 2000
% output
    # printlevel mini
    print[ P_Basis ] 0
    print[ P_SCFInfo ] 1
    print[ P_SCFIterInfo ] 1
    print[ P_OrbEn ] 0
    print[ P_Cartesian ] 0
end
*xyz 0 1
 N        0.9965700000     0.0597200000     0.1214740000 
 C        2.4547660000     0.0316590000     0.0364880000 
 C        2.9961970000    -1.1366590000    -0.6747640000 
 C        3.3933840000    -2.1192760000    -1.2376530000 
 C        2.9500460000     1.2719670000    -0.5624770000 
 C        3.3539360000     2.2859720000    -1.0572550000 
 H        0.6722230000    -0.8177500000     0.5117430000 
 H        0.6089200000     0.1304550000    -0.8124680000 
 H        2.8348680000    -0.0066250000     1.0657040000 
 H        3.7522240000    -2.9845330000    -1.7433580000 
 H        3.7118570000     3.1880700000    -1.4943350000 
*
