! RI PBE def2-SVP def2-SVP/J NBO PAL2
% maxcore 2000
% output
    # printlevel mini
    print[ P_Basis ] 0
    print[ P_SCFInfo ] 1
    print[ P_SCFIterInfo ] 1
    print[ P_OrbEn ] 0
    print[ P_Cartesian ] 0
end
*xyz 0 1
 N        1.5586990000    -0.1034090000     0.8661090000 
 C        2.7858940000     0.2474070000     0.1638180000 
 C        2.9527910000    -0.6073620000    -1.0451640000 
 C        4.0419520000    -1.3276780000    -1.3214200000 
 C        4.1960420000    -2.1479460000    -2.5046010000 
 C        5.2849800000    -2.8628550000    -2.7867160000 
 H        1.3939450000     0.5280840000     1.6395270000 
 H        1.6283700000    -1.0390920000     1.2468410000 
 H        3.6970350000     0.1862810000     0.7786610000 
 H        2.6896470000     1.2935430000    -0.1529410000 
 H        2.1026170000    -0.6336270000    -1.7243660000 
 H        4.8812890000    -1.3084280000    -0.6271990000 
 H        3.3532570000    -2.1655510000    -3.1925430000 
 H        6.1441000000    -2.8669220000    -2.1233500000 
 H        5.3531930000    -3.4637660000    -3.6851670000 
*
