! RI PBE def2-SVP def2-SVP/J NBO PAL2
% maxcore 2000
% output
    # printlevel mini
    print[ P_Basis ] 0
    print[ P_SCFInfo ] 1
    print[ P_SCFIterInfo ] 1
    print[ P_OrbEn ] 0
    print[ P_Cartesian ] 0
end
*xyz 0 1
 N        2.1696920000     0.6312420000     1.2904300000 
 C        2.6764620000    -0.0178710000     0.0857300000 
 C        3.1569820000     0.9905830000    -0.8999830000 
 C        4.3817970000     1.0035870000    -1.4276740000 
 C        4.8249240000     1.9431380000    -2.3916250000 
 C        5.2324340000     2.7253140000    -3.2105640000 
 H        1.7947080000    -0.0608000000     1.9276870000 
 H        1.4063580000     1.2559270000     1.0578150000 
 H        1.9247210000    -0.6527460000    -0.4149560000 
 H        3.5053540000    -0.6734440000     0.3673500000 
 H        2.4427240000     1.7499340000    -1.2124140000 
 H        5.1067540000     0.2543200000    -1.1165620000 
 H        5.5853010000     3.4221070000    -3.9332240000 
*
