! RI PBE def2-SVP def2-SVP/J NBO PAL2
% maxcore 2000
% output
    # printlevel mini
    print[ P_Basis ] 0
    print[ P_SCFInfo ] 1
    print[ P_SCFIterInfo ] 1
    print[ P_OrbEn ] 0
    print[ P_Cartesian ] 0
end
*xyz 0 1
 N        2.6476160000    -0.8135490000     1.1595230000 
 C        2.3253980000    -0.1670280000    -0.1041070000 
 C        2.8621770000    -0.9588460000    -1.2679140000 
 C        2.0844720000    -1.4295120000    -2.2435520000 
 C        4.2729850000    -1.1640920000    -1.2800700000 
 C        5.4668220000    -1.3110850000    -1.2361820000 
 H        2.3674440000    -0.2237040000     1.9331950000 
 H        3.6509980000    -0.9407930000     1.2325010000 
 H        2.7216540000     0.8582520000    -0.1879510000 
 H        1.2388370000    -0.1051110000    -0.2017950000 
 H        1.0121920000    -1.2743650000    -2.2186170000 
 H        2.4975770000    -1.9748690000    -3.0828150000 
 H        6.5217180000    -1.4517970000    -1.2196050000 
*
