! RI PBE def2-SVP def2-SVP/J NBO PAL2
% maxcore 2000
% output
    # printlevel mini
    print[ P_Basis ] 0
    print[ P_SCFInfo ] 1
    print[ P_SCFIterInfo ] 1
    print[ P_OrbEn ] 0
    print[ P_Cartesian ] 0
end
*xyz 0 1
 N        1.0451960000    -0.0101880000    -0.3136280000 
 C        2.4435480000     0.0670280000     0.0924260000 
 C        2.9464760000     1.4295840000     0.0222290000 
 C        3.3625650000     2.5581630000    -0.0606350000 
 C        3.8868700000     3.8719980000    -0.1486980000 
 C        3.1488660000     4.9776890000    -0.2463820000 
 H        0.7424140000    -0.9764620000    -0.3178160000 
 H        0.9396970000     0.3442910000    -1.2561720000 
 H        3.1195600000    -0.5737590000    -0.4964860000 
 H        2.5177130000    -0.2804490000     1.1292920000 
 H        4.9713520000     3.9531030000    -0.1361970000 
 H        2.0663560000     4.9359140000    -0.2606130000 
 H        3.6176870000     5.9514870000    -0.3145200000 
*
