! RI PBE def2-SVP def2-SVP/J NBO PAL2
% maxcore 2000
% output
    # printlevel mini
    print[ P_Basis ] 0
    print[ P_SCFInfo ] 1
    print[ P_SCFIterInfo ] 1
    print[ P_OrbEn ] 0
    print[ P_Cartesian ] 0
end
*xyz 0 1
 N        1.0986260000    -0.0051290000    -0.0648930000 
 C        2.5544080000    -0.0178090000    -0.0077360000 
 C        3.0398630000    -0.9075870000     1.0325620000 
 C        3.4489030000    -1.6224420000     1.9156500000 
 C        3.9115660000    -2.4359550000     2.9070020000 
 C        4.3209620000    -3.1539140000     3.7846470000 
 H        0.7900160000     0.6485720000    -0.7737790000 
 H        0.7174150000     0.3039020000     0.8206850000 
 H        3.0120690000     0.9708910000     0.1592080000 
 H        2.9332890000    -0.3739430000    -0.9723480000 
 H        4.6818820000    -3.7894850000     4.5580040000 
*
