! RI PBE def2-SVP def2-SVP/J NBO PAL2
% maxcore 2000
% output
    # printlevel mini
    print[ P_Basis ] 0
    print[ P_SCFInfo ] 1
    print[ P_SCFIterInfo ] 1
    print[ P_OrbEn ] 0
    print[ P_Cartesian ] 0
end
*xyz 0 1
 N        1.0319750000    -0.2995010000    -0.0156180000 
 C        2.4744890000    -0.1461930000     0.1059070000 
 C        3.0116570000     0.6878630000    -1.0409030000 
 C        4.5237700000     0.9089610000    -0.9728080000 
 C        5.3025300000    -0.3105410000    -1.1233520000 
 C        5.9382010000    -1.3203570000    -1.2598190000 
 H        0.6602690000    -0.8079560000     0.7767630000 
 H        0.8074120000    -0.8436940000    -0.8405410000 
 H        3.0236480000    -1.0987140000     0.1442620000 
 H        2.6788050000     0.3726520000     1.0491110000 
 H        2.5078610000     1.6583420000    -1.0385720000 
 H        2.7653020000     0.2033080000    -1.9921300000 
 H        4.7845570000     1.3814720000    -0.0186160000 
 H        4.8251220000     1.6132780000    -1.7547030000 
 H        6.5056230000    -2.2127200000    -1.3783820000 
*
