! RI PBE def2-SVP def2-SVP/J NBO PAL2
% maxcore 2000
% output
    # printlevel mini
    print[ P_Basis ] 0
    print[ P_SCFInfo ] 1
    print[ P_SCFIterInfo ] 1
    print[ P_OrbEn ] 0
    print[ P_Cartesian ] 0
end
*xyz 0 1
 N        0.9613710000     0.0554630000    -0.0831570000 
 C        2.4165360000     0.0399090000    -0.0539310000 
 C        2.9615800000    -1.0287280000    -0.9821270000 
 C        4.4794920000    -1.0654640000    -1.0223190000 
 C        5.0245250000    -2.1339680000    -1.9506730000 
 N        6.4796860000    -2.1496370000    -1.9213160000 
 H        0.5988840000     0.7858960000     0.5165170000 
 H        0.5953130000    -0.8208040000     0.2704230000 
 H        2.8379170000    -0.1128930000     0.9532350000 
 H        2.7689700000     1.0205090000    -0.3918000000 
 H        2.5552370000    -0.8577250000    -1.9846750000 
 H        2.5829500000    -2.0080790000    -0.6603620000 
 H        4.8858370000    -1.2366190000    -0.0197980000 
 H        4.8581170000    -0.0860610000    -1.3439430000 
 H        4.6032410000    -1.9809320000    -2.9578430000 
 H        4.6719720000    -3.1146000000    -1.6130140000 
 H        6.8458100000    -1.2731300000    -2.2742390000 
 H        6.8421920000    -2.8796470000    -2.5214970000 
*
