! RI PBE def2-SVP def2-SVP/J NBO PAL2
% maxcore 2000
% output
    # printlevel mini
    print[ P_Basis ] 0
    print[ P_SCFInfo ] 1
    print[ P_SCFIterInfo ] 1
    print[ P_OrbEn ] 0
    print[ P_Cartesian ] 0
end
*xyz 0 1
 N        1.0280120000    -0.0082850000     0.0067730000 
 C        2.1794800000    -0.0375170000     0.0130040000 
 C        3.5980890000    -0.0433540000     0.0142020000 
 C        4.3026210000    -1.1557840000     0.2479100000 
 C        5.7212840000    -1.1617020000     0.2491420000 
 N        6.8727070000    -1.1922760000     0.2555540000 
 H        4.0909720000     0.9021480000    -0.1844480000 
 H        3.8097340000    -2.1012790000     0.4465630000 
*
