! RI PBE def2-SVP def2-SVP/J NBO PAL2
% maxcore 2000
% output
    # printlevel mini
    print[ P_Basis ] 0
    print[ P_SCFInfo ] 1
    print[ P_SCFIterInfo ] 1
    print[ P_OrbEn ] 0
    print[ P_Cartesian ] 0
end
*xyz 0 1
 N        1.0035440000     0.0770000000    -0.0628000000 
 C        2.1586780000     0.0770000000    -0.0628000000 
 C        3.5222480000     0.0770000000    -0.0628000000 
 C        4.7293520000     0.0770000000    -0.0628000000 
 C        6.0929220000     0.0770000000    -0.0628000000 
 N        7.2480560000     0.0770000000    -0.0628000000 
*
