! RI PBE def2-SVP def2-SVP/J NBO PAL2
% maxcore 2000
% output
    # printlevel mini
    print[ P_Basis ] 0
    print[ P_SCFInfo ] 1
    print[ P_SCFIterInfo ] 1
    print[ P_OrbEn ] 0
    print[ P_Cartesian ] 0
end
*xyz 0 1
 N        0.9075380000     0.0490040000     0.0717010000 
 C        2.0564400000     0.0417790000     0.0839090000 
 C        3.5098300000     0.0476950000     0.0750900000 
 C        4.0546130000     0.8114680000    -1.1412160000 
 C        5.5079800000     0.8172360000    -1.1503100000 
 N        6.6568730000     0.8095540000    -1.1381100000 
 H        3.8680790000    -0.9844920000     0.0653970000 
 H        3.8677220000     0.5050620000     1.0006000000 
 H        3.6965070000     1.8437030000    -1.1314280000 
 H        3.6965560000     0.3542200000    -2.0667220000 
*
