! RI PBE def2-SVP def2-SVP/J NBO PAL2
% maxcore 2000
% output
    # printlevel mini
    print[ P_Basis ] 0
    print[ P_SCFInfo ] 1
    print[ P_SCFIterInfo ] 1
    print[ P_OrbEn ] 0
    print[ P_Cartesian ] 0
end
*xyz 0 1
 N        1.7308010000    -0.4257150000    -0.6073230000 
 C        3.0640620000    -0.0251510000    -0.2038870000 
 C        3.3080620000     1.4531470000    -0.3240400000 
 C        2.3548300000     2.3198720000    -0.6420360000 
 C        4.7280730000     1.8620010000    -0.0486930000 
 N        4.9860030000     3.2647680000    -0.3065880000 
 H        1.5888890000    -1.4107600000    -0.4282270000 
 H        1.6060050000    -0.2787990000    -1.6016230000 
 H        3.8675200000    -0.5451560000    -0.7540410000 
 H        3.1987240000    -0.3107310000     0.8476600000 
 H        1.3383800000     1.9859320000    -0.8089740000 
 H        2.5680690000     3.3802090000    -0.6946910000 
 H        5.3901510000     1.1800440000    -0.6101160000 
 H        4.9413570000     1.6687610000     1.0108400000 
 H        4.9056300000     3.4600580000    -1.2971380000 
 H        5.9268450000     3.5079180000    -0.0269130000 
*
