! RI PBE def2-SVP def2-SVP/J NBO PAL2
% maxcore 2000
% output
    # printlevel mini
    print[ P_Basis ] 0
    print[ P_SCFInfo ] 1
    print[ P_SCFIterInfo ] 1
    print[ P_OrbEn ] 0
    print[ P_Cartesian ] 0
end
*xyz 0 1
 N        1.3886010000    -0.7908280000    -0.2397450000 
 C        2.6389060000    -0.1819040000     0.1864340000 
 C        3.0561210000     0.9098960000    -0.8077520000 
 N        2.0551970000     1.9407260000    -0.9864860000 
 C        4.3905170000     1.4726160000    -0.4323830000 
 C        4.7041590000     2.7599660000    -0.3967530000 
 H        0.9745970000    -1.3366940000     0.5036840000 
 H        1.5435930000    -1.4185640000    -1.0195030000 
 H        3.4644370000    -0.9011180000     0.3047100000 
 H        2.4781150000     0.2856030000     1.1636360000 
 H        3.1810730000     0.4091840000    -1.7824530000 
 H        1.9969720000     2.4985180000    -0.1399680000 
 H        1.1557730000     1.4818330000    -1.0908000000 
 H        5.1449270000     0.7340910000    -0.1676320000 
 H        3.9888500000     3.5241340000    -0.6790310000 
 H        5.6961730000     3.0864210000    -0.1071580000 
*
