! RI PBE def2-SVP def2-SVP/J NBO PAL2
% maxcore 2000
% output
    # printlevel mini
    print[ P_Basis ] 0
    print[ P_SCFInfo ] 1
    print[ P_SCFIterInfo ] 1
    print[ P_OrbEn ] 0
    print[ P_Cartesian ] 0
end
*xyz 0 1
 N        2.8239430000    -0.5454500000     1.3778380000 
 C        2.4200390000     0.0182870000     0.1064160000 
 C        2.9407240000    -0.8326650000    -1.0603780000 
 N        2.4728220000    -0.4067290000    -2.3715180000 
 C        4.4014410000    -0.8594190000    -1.0421260000 
 C        5.6009040000    -0.8407100000    -0.9909430000 
 H        2.4323920000    -0.0204420000     2.1485170000 
 H        3.8329230000    -0.5126190000     1.4678420000 
 H        2.7466220000     1.0576280000    -0.0628480000 
 H        1.3263530000     0.0082100000     0.0539890000 
 H        2.5903790000    -1.8581820000    -0.8928840000 
 H        2.8204120000     0.5207630000    -2.5845780000 
 H        1.4606200000    -0.3652210000    -2.3786760000 
 H        6.6649970000    -0.8429800000    -0.9657510000 
*
