! RI PBE def2-SVP def2-SVP/J NBO PAL2
% maxcore 2000
% output
    # printlevel mini
    print[ P_Basis ] 0
    print[ P_SCFInfo ] 1
    print[ P_SCFIterInfo ] 1
    print[ P_OrbEn ] 0
    print[ P_Cartesian ] 0
end
*xyz 0 1
 N        1.1412750000    -0.7331400000    -0.1251990000 
 C        2.0062920000     0.0489230000     0.3938960000 
 N        2.8761180000    -0.3709140000     1.3276010000 
 C        3.9378840000     0.2779220000     2.0707390000 
 C        4.2012400000    -1.0753410000     2.7723050000 
 C        3.0509330000    -1.6755400000     1.9313620000 
 H        0.5789760000    -0.2347770000    -0.8059320000 
 H        2.1322590000     1.1112370000     0.1461160000 
 H        3.6019070000     1.0853800000     2.7304250000 
 H        4.7628700000     0.6487820000     1.4527320000 
 H        4.0245510000    -1.0687650000     3.8462920000 
 H        5.1820100000    -1.5034890000     2.5736100000 
 H        2.1773540000    -2.0213920000     2.4918370000 
 H        3.3348100000    -2.4554660000     1.2185960000 
*
