! RI PBE def2-SVP def2-SVP/J NBO PAL2
% maxcore 2000
% output
    # printlevel mini
    print[ P_Basis ] 0
    print[ P_SCFInfo ] 1
    print[ P_SCFIterInfo ] 1
    print[ P_OrbEn ] 0
    print[ P_Cartesian ] 0
end
*xyz 0 1
 N        1.0680660000    -2.5560200000    -0.0609410000 
 C        2.3368310000    -2.5274510000     0.0046960000 
 N        3.0469530000    -1.3800590000    -0.1851050000 
 C        4.3925210000    -1.2390220000     0.2516910000 
 C        5.4635550000    -1.9880170000    -0.4822080000 
 C        5.3449550000    -0.5045300000    -0.6373820000 
 H        0.7279450000    -3.5040830000     0.0565750000 
 H        2.9801400000    -3.3958360000     0.1879890000 
 H        2.4831390000    -0.5445550000    -0.2438570000 
 H        4.5435860000    -1.1136430000     1.3227940000 
 H        5.1491490000    -2.6014480000    -1.3167330000 
 H        6.2884210000    -2.3857560000     0.0948120000 
 H        4.9486010000    -0.1337220000    -1.5741480000 
 H        6.0882280000     0.1283430000    -0.1700640000 
*
