! RI PBE def2-SVP def2-SVP/J NBO PAL2
% maxcore 2000
% output
    # printlevel mini
    print[ P_Basis ] 0
    print[ P_SCFInfo ] 1
    print[ P_SCFIterInfo ] 1
    print[ P_OrbEn ] 0
    print[ P_Cartesian ] 0
end
*xyz 0 1
 N        1.1192170000     0.0073580000     0.3636110000 
 C        2.3661110000    -0.1599600000    -0.1719810000 
 N        2.7591010000    -1.0731220000    -0.9640130000 
 C        3.3492100000     0.9502280000     0.1563090000 
 C        3.2042810000     1.5264630000     1.4811720000 
 C        3.0583040000     1.9967090000     2.5764840000 
 H        0.4786910000    -0.7661130000     0.3110560000 
 H        1.0428230000     0.5851910000     1.1856460000 
 H        2.0178450000    -1.7434060000    -1.1636640000 
 H        3.2191950000     1.7388830000    -0.5936640000 
 H        4.3512080000     0.5425260000     0.0163790000 
 H        2.9505930000     2.4183340000     3.5479840000 
*
