! RI PBE def2-SVP def2-SVP/J NBO PAL2
% maxcore 2000
% output
    # printlevel mini
    print[ P_Basis ] 0
    print[ P_SCFInfo ] 1
    print[ P_SCFIterInfo ] 1
    print[ P_OrbEn ] 0
    print[ P_Cartesian ] 0
end
*xyz 0 1
 N        1.0129500000     0.1345030000    -0.0909060000 
 N        2.3942070000     0.0050150000    -0.0614260000 
 C        3.2375260000     1.0646600000    -0.2057520000 
 C        4.5220910000     0.5907140000    -0.1276910000 
 C        4.4437540000    -0.8096840000     0.0714410000 
 C        3.1144550000    -1.1444300000     0.1084970000 
 H        0.6234140000    -0.1936880000     0.7849400000 
 H        0.6363620000    -0.4264470000    -0.8459250000 
 H        2.8381030000     2.0548210000    -0.3498600000 
 H        5.4191050000     1.1846040000    -0.2051760000 
 H        5.2692340000    -1.4965390000     0.1760260000 
 H        2.6190980000    -2.0936300000     0.2393410000 
*
