! RI PBE def2-SVP def2-SVP/J NBO PAL2
% maxcore 2000
% output
    # printlevel mini
    print[ P_Basis ] 0
    print[ P_SCFInfo ] 1
    print[ P_SCFIterInfo ] 1
    print[ P_OrbEn ] 0
    print[ P_Cartesian ] 0
end
*xyz 0 1
 N        1.1050360000    -1.7182140000     0.8984300000 
 N        2.3884760000    -1.7171230000     0.4386350000 
 C        3.1753150000    -0.8089750000     0.8426040000 
 C        4.5841320000    -0.7405670000     0.4134310000 
 C        5.1564430000    -1.7835080000    -0.4920300000 
 C        4.9127960000    -0.4112840000    -1.0262230000 
 H        0.4989030000    -2.1814150000     0.2400040000 
 H        0.7449100000    -0.8049770000     1.1614390000 
 H        2.8235020000    -0.0175340000     1.5185300000 
 H        5.2517670000    -0.3097660000     1.1520330000 
 H        4.4803230000    -2.5704610000    -0.7991640000 
 H        6.1796460000    -2.0915410000    -0.3177760000 
 H        4.0708770000    -0.2751220000    -1.6937730000 
 H        5.7624740000     0.2323670000    -1.2191290000 
*
