! RI PBE def2-SVP def2-SVP/J NBO PAL2
% maxcore 2000
% output
    # printlevel mini
    print[ P_Basis ] 0
    print[ P_SCFInfo ] 1
    print[ P_SCFIterInfo ] 1
    print[ P_OrbEn ] 0
    print[ P_Cartesian ] 0
end
*xyz 0 1
 C       -1.2732140000     0.0492480000    -0.4287520000 
 C       -0.3860280000    -0.7548970000     0.5514960000 
 O       -0.4471540000     0.3894330000     1.4494470000 
 C       -0.3687640000     1.1352080000     0.2015600000 
 C        1.0105460000     0.7245930000    -0.3206290000 
 C        0.9986040000    -0.5828570000    -0.0785680000 
 H       -2.3091960000     0.1207360000    -0.0937340000 
 H       -1.1885950000    -0.1493020000    -1.4970030000 
 H       -0.6738010000    -1.7040600000     0.9987080000 
 H       -0.6382640000     2.1864860000     0.2784100000 
 H        1.7649800000     1.3585010000    -0.7622900000 
 H        1.7402760000    -1.3460800000    -0.2615630000 
*
