! RI PBE def2-SVP def2-SVP/J NBO PAL2
% maxcore 2000
% output
    # printlevel mini
    print[ P_Basis ] 0
    print[ P_SCFInfo ] 1
    print[ P_SCFIterInfo ] 1
    print[ P_OrbEn ] 0
    print[ P_Cartesian ] 0
end
*xyz 0 1
 C        0.3843030000     1.4151230000     0.4906310000 
 C        0.8403820000     0.3603520000    -0.4552480000 
 O        0.8885300000    -0.9711150000     0.0021990000 
 C       -0.3903030000    -1.3263110000     0.3031390000 
 C       -1.3038030000    -0.3973770000     0.0249860000 
 C       -0.6037130000     0.8056050000    -0.4803420000 
 H        0.7360300000     2.4174360000     0.2797250000 
 H        0.2770420000     1.1650150000     1.5390700000 
 H        1.5749170000     0.5667420000    -1.2219010000 
 H       -0.5012570000    -2.3137910000     0.7271730000 
 H       -2.3698860000    -0.5021470000     0.1538000000 
 H       -1.0277410000     1.4114580000    -1.2718320000 
*
