! RI PBE def2-SVP def2-SVP/J NBO PAL2
% maxcore 2000
% output
    # printlevel mini
    print[ P_Basis ] 0
    print[ P_SCFInfo ] 1
    print[ P_SCFIterInfo ] 1
    print[ P_OrbEn ] 0
    print[ P_Cartesian ] 0
end
*xyz 0 1
 C        0.3337910000     0.7951190000    -0.1231270000 
 C       -0.7276540000    -0.2373060000     0.1075670000 
 C        0.6963200000    -0.6549180000    -0.1059160000 
 C        1.4724070000    -1.2229950000     1.0300060000 
 C        2.6781780000    -0.5867320000     1.5528220000 
 O        1.4455910000    -0.5011850000     2.2513320000 
 H        0.6322410000     1.3863620000     0.7336340000 
 H        0.3540980000     1.3131470000    -1.0735080000 
 H       -1.4436370000    -0.4316510000    -0.6809280000 
 H       -1.1199590000    -0.3203980000     1.1137570000 
 H        0.9260210000    -1.1160510000    -1.0616400000 
 H        1.3783250000    -2.3011360000     1.1614760000 
 H        3.0173530000     0.3426360000     1.1015130000 
 H        3.4446250000    -1.1864210000     2.0374920000 
*
