! RI PBE def2-SVP def2-SVP/J NBO PAL2
% maxcore 2000
% output
    # printlevel mini
    print[ P_Basis ] 0
    print[ P_SCFInfo ] 1
    print[ P_SCFIterInfo ] 1
    print[ P_OrbEn ] 0
    print[ P_Cartesian ] 0
end
*xyz 0 1
 C        0.7973970000     1.2807070000    -0.6148480000 
 C       -0.3528010000     1.0082660000     0.3197670000 
 C       -1.3989440000     0.0075340000    -0.1402870000 
 C       -0.7069490000    -1.3344140000     0.1078770000 
 O        0.6901980000    -1.0840270000     0.0233600000 
 C        0.9172590000     0.2316150000     0.4400350000 
 H        1.3466000000     2.2055780000    -0.4814660000 
 H        0.7126400000     0.9340990000    -1.6384670000 
 H       -0.6218830000     1.7620520000     1.0483250000 
 H       -1.6479250000     0.1407230000    -1.1965620000 
 H       -2.3228030000     0.0975020000     0.4340430000 
 H       -0.9545680000    -2.1020360000    -0.6276230000 
 H       -0.9553890000    -1.7169790000     1.1076010000 
 H        1.6085790000     0.3379890000     1.2688350000 
*
