! RI PBE def2-SVP def2-SVP/J NBO PAL2
% maxcore 2000
% output
    # printlevel mini
    print[ P_Basis ] 0
    print[ P_SCFInfo ] 1
    print[ P_SCFIterInfo ] 1
    print[ P_OrbEn ] 0
    print[ P_Cartesian ] 0
end
*xyz 0 1
 C        0.7852710000     1.3740510000     0.2405030000 
 C       -0.6992170000     1.2431740000    -0.1329390000 
 C       -0.9680910000    -0.2336180000    -0.0225590000 
 O       -0.4499890000    -0.8206530000     1.1675670000 
 C        0.3014230000    -0.9535760000    -0.0354080000 
 C        1.4290510000     0.0362060000    -0.1544800000 
 H        0.8763950000     1.5155080000     1.3175910000 
 H        1.2639380000     2.2267280000    -0.2433230000 
 H       -0.8823880000     1.5531990000    -1.1676900000 
 H       -1.3486610000     1.8421000000     0.5100870000 
 H       -1.8935200000    -0.6678220000    -0.3897510000 
 H        0.3981030000    -1.9674290000    -0.4129470000 
 H        1.7732490000     0.0471540000    -1.1945690000 
 H        2.2861460000    -0.2192440000     0.4732970000 
*
