! RI PBE def2-SVP def2-SVP/J NBO PAL2
% maxcore 2000
% output
    # printlevel mini
    print[ P_Basis ] 0
    print[ P_SCFInfo ] 1
    print[ P_SCFIterInfo ] 1
    print[ P_OrbEn ] 0
    print[ P_Cartesian ] 0
end
*xyz 0 1
 C        0.9610030000    -1.0509550000     0.0119240000 
 C       -0.4816860000    -1.4754770000     0.0722950000 
 C       -1.3150000000    -0.4416870000    -0.0266660000 
 C       -0.5450800000     0.8269730000    -0.0994290000 
 O        0.2573260000     1.0611450000     1.0655060000 
 C        0.8733480000     0.4574080000    -0.0587190000 
 H        1.4670400000    -1.4603590000    -0.8695530000 
 H        1.5272160000    -1.3821830000     0.8889470000 
 H       -0.7802790000    -2.5072500000     0.2159980000 
 H       -2.3959860000    -0.4925720000    -0.0134420000 
 H       -0.9271170000     1.7187190000    -0.5845760000 
 H        1.6537250000     1.0436370000    -0.5341060000 
*
