! RI PBE def2-SVP def2-SVP/J NBO PAL2
% maxcore 2000
% output
    # printlevel mini
    print[ P_Basis ] 0
    print[ P_SCFInfo ] 1
    print[ P_SCFIterInfo ] 1
    print[ P_OrbEn ] 0
    print[ P_Cartesian ] 0
end
*xyz 0 1
 C        0.4196860000     1.2890820000    -0.0901110000 
 C       -1.0592770000     1.0528240000     0.1561660000 
 C       -1.3780200000    -0.3955260000    -0.0409060000 
 C       -0.4182760000    -1.3112260000    -0.0800370000 
 C        1.0189110000    -0.9607620000     0.1306100000 
 O        1.2091230000     0.3493180000     0.6044750000 
 H        0.7338330000     2.2735730000     0.2612950000 
 H        0.6283740000     1.2301910000    -1.1695240000 
 H       -1.6502780000     1.6695750000    -0.5299370000 
 H       -1.3318980000     1.3698060000     1.1700400000 
 H       -2.4170210000    -0.6854500000    -0.1648630000 
 H       -0.6482550000    -2.3567350000    -0.2628090000 
 H        1.5832370000    -1.1163330000    -0.8058810000 
 H        1.4628510000    -1.6236370000     0.8797620000 
*
