! RI PBE def2-SVP def2-SVP/J NBO PAL2
% maxcore 2000
% output
    # printlevel mini
    print[ P_Basis ] 0
    print[ P_SCFInfo ] 1
    print[ P_SCFIterInfo ] 1
    print[ P_OrbEn ] 0
    print[ P_Cartesian ] 0
end
*xyz 0 1
 C        0.3836960000     1.3696820000     0.2867980000 
 C        1.3340840000     0.2909020000    -0.1892310000 
 O        0.9711680000    -0.9939400000     0.2981100000 
 C       -0.3503410000    -1.2694590000     0.2178980000 
 C       -1.3112490000    -0.3880330000    -0.0502600000 
 C       -1.0244330000     1.0718450000    -0.2141950000 
 H        0.7359490000     2.3448500000    -0.0594820000 
 H        0.3937700000     1.3880290000     1.3808930000 
 H        2.3533870000     0.4619350000     0.1592390000 
 H        1.3426720000     0.2537640000    -1.2866890000 
 H       -0.5463700000    -2.3188400000     0.4065260000 
 H       -2.3308800000    -0.7489950000    -0.1072880000 
 H       -1.7573980000     1.6636010000     0.3436400000 
 H       -1.1299640000     1.3749770000    -1.2634480000 
*
