! RI PBE def2-SVP def2-SVP/J NBO PAL2
% maxcore 2000
% output
    # printlevel mini
    print[ P_Basis ] 0
    print[ P_SCFInfo ] 1
    print[ P_SCFIterInfo ] 1
    print[ P_OrbEn ] 0
    print[ P_Cartesian ] 0
end
*xyz 0 1
 C        0.6975890000     1.1586020000    -0.2442550000 
 C       -0.7346260000     1.1589950000     0.2425130000 
 O       -1.4124750000     0.0005210000    -0.1926850000 
 C       -0.7355470000    -1.1588020000     0.2416850000 
 C        0.6966670000    -1.1591990000    -0.2450850000 
 O        1.3745190000    -0.0007230000     0.1901030000 
 H        1.2433720000     2.0164870000     0.1548760000 
 H        0.7123260000     1.2117300000    -1.3437000000 
 H       -1.2797270000     2.0176030000    -0.1559960000 
 H       -0.7493210000     1.2113370000     1.3419960000 
 H       -1.2813330000    -2.0166900000    -0.1574350000 
 H       -0.7502830000    -1.2119160000     1.3411310000 
 H        0.7113600000    -1.2115510000    -1.3445680000 
 H        1.2417700000    -2.0178030000     0.1534300000 
*
