! RI PBE def2-SVP def2-SVP/J NBO PAL2
% maxcore 2000
% output
    # printlevel mini
    print[ P_Basis ] 0
    print[ P_SCFInfo ] 1
    print[ P_SCFIterInfo ] 1
    print[ P_OrbEn ] 0
    print[ P_Cartesian ] 0
end
*xyz 0 1
 C        0.6946020000     1.2357440000    -0.2265140000 
 C       -0.7542510000     1.1847020000     0.2251920000 
 O       -1.3655200000    -0.0128230000    -0.2133510000 
 C       -0.6597590000    -1.1252420000     0.2431980000 
 O        0.6505560000    -1.1728320000    -0.2309600000 
 C        1.3844150000    -0.0458430000     0.2065130000 
 H        1.1994700000     2.1066910000     0.2020280000 
 H        0.7335580000     1.3199860000    -1.3159260000 
 H       -1.3413570000     2.0063590000    -0.1874180000 
 H       -0.8088380000     1.2427860000     1.3245230000 
 H       -1.1721900000    -2.0101360000    -0.1325840000 
 H       -0.6501900000    -1.1254110000     1.3498140000 
 H        2.3843230000    -0.1373200000    -0.2199580000 
 H        1.4764820000    -0.0721410000     1.3045630000 
*
