! RI PBE def2-SVP def2-SVP/J NBO PAL2
% maxcore 2000
% output
    # printlevel mini
    print[ P_Basis ] 0
    print[ P_SCFInfo ] 1
    print[ P_SCFIterInfo ] 1
    print[ P_OrbEn ] 0
    print[ P_Cartesian ] 0
end
*xyz 0 1
 C       -0.2027540000     0.7235660000     0.0214790000 
 O       -0.1214620000    -0.6257210000    -0.4098030000 
 C        1.0604490000    -0.0048650000     0.0680370000 
 C        1.5948120000    -0.5368400000     1.3472370000 
 C        2.8585200000    -1.2643500000     1.3942230000 
 O        2.7761060000     0.0848240000     1.8256220000 
 H       -0.7585890000     0.8840390000     0.9423390000 
 H       -0.3702310000     1.4548240000    -0.7648150000 
 H        1.8129490000     0.2083230000    -0.6903650000 
 H        0.8421280000    -0.7506670000     2.1052810000 
 H        3.4148410000    -1.4243480000     0.4735710000 
 H        3.0262220000    -1.9955860000     2.1804950000 
*
