! RI PBE def2-SVP def2-SVP/J NBO PAL2
% maxcore 2000
% output
    # printlevel mini
    print[ P_Basis ] 0
    print[ P_SCFInfo ] 1
    print[ P_SCFIterInfo ] 1
    print[ P_OrbEn ] 0
    print[ P_Cartesian ] 0
end
*xyz 0 1
 C        0.7626080000     1.3246830000    -0.6232690000 
 C       -0.3363870000     0.9047200000     0.3020250000 
 C       -1.3471340000    -0.0539630000    -0.2742040000 
 O       -0.5922690000    -1.0363290000    -0.9613450000 
 C        0.6443210000    -1.1947270000    -0.2884540000 
 C        0.9662160000     0.1585510000     0.2927040000 
 H        1.2890130000     2.2406780000    -0.3862740000 
 H        0.6400700000     1.1239930000    -1.6822770000 
 H       -0.6220850000     1.5405140000     1.1303240000 
 H       -2.0315100000     0.3940260000    -0.9995320000 
 H       -1.9408080000    -0.5053070000     0.5348450000 
 H        1.3690970000    -1.5539420000    -1.0238670000 
 H        0.5640100000    -1.9401410000     0.5169200000 
 H        1.6680700000     0.2286440000     1.1139360000 
*
