! RI PBE def2-SVP def2-SVP/J NBO PAL2
% maxcore 2000
% output
    # printlevel mini
    print[ P_Basis ] 0
    print[ P_SCFInfo ] 1
    print[ P_SCFIterInfo ] 1
    print[ P_OrbEn ] 0
    print[ P_Cartesian ] 0
end
*xyz 0 1
 C        0.6380570000     1.2314600000    -0.2909490000 
 O       -0.6668680000     1.1716590000    -0.8353150000 
 C       -1.3673930000     0.0736080000    -0.2818800000 
 C       -0.3121470000    -0.8904480000     0.1779870000 
 O        0.6729940000    -1.1488560000    -0.8116550000 
 C        0.9484670000    -0.1626300000     0.1722860000 
 H        0.6899700000     1.9197010000     0.5661910000 
 H        1.3109360000     1.5918360000    -1.0733020000 
 H       -2.0212130000    -0.3319890000    -1.0582330000 
 H       -1.9835600000     0.3761320000     0.5782820000 
 H       -0.5420800000    -1.7003210000     0.8629660000 
 H        1.7694350000    -0.3657620000     0.8525120000 
*
