! RI PBE def2-SVP def2-SVP/J NBO PAL2
% maxcore 2000
% output
    # printlevel mini
    print[ P_Basis ] 0
    print[ P_SCFInfo ] 1
    print[ P_SCFIterInfo ] 1
    print[ P_OrbEn ] 0
    print[ P_Cartesian ] 0
end
*xyz 0 1
 C        0.2565040000    -1.3913770000     0.0233000000 
 O       -1.0750290000    -0.8544580000     0.0160550000 
 C       -1.2685720000     0.4744150000     0.0003650000 
 C       -0.2995220000     1.3917980000    -0.0100870000 
 C        1.0786630000     0.9372490000    -0.0043800000 
 C        1.3446040000    -0.3666620000     0.0112090000 
 H        0.3357290000    -2.0538970000    -0.8490450000 
 H        0.3349360000    -2.0322960000     0.9117200000 
 H       -2.3259060000     0.7118560000    -0.0028590000 
 H       -0.5545440000     2.4415310000    -0.0225530000 
 H        1.8832020000     1.6636170000    -0.0129080000 
 H        2.3615440000    -0.7435760000     0.0158820000 
*
