! RI PBE def2-SVP def2-SVP/J NBO PAL2
% maxcore 2000
% output
    # printlevel mini
    print[ P_Basis ] 0
    print[ P_SCFInfo ] 1
    print[ P_SCFIterInfo ] 1
    print[ P_OrbEn ] 0
    print[ P_Cartesian ] 0
end
*xyz 0 1
 C        0.3415210000     1.2484910000    -0.0045270000 
 O        1.2091000000     0.3457720000    -0.5967560000 
 C        1.0309380000    -0.9594020000    -0.0713570000 
 C       -0.4205060000    -1.2647310000     0.0947350000 
 C       -1.3297080000    -0.3119920000    -0.0879530000 
 O       -1.0110890000     0.9845380000    -0.3158980000 
 H        0.5664890000     2.2379940000    -0.3980130000 
 H        0.4441900000     1.2250240000     1.0916240000 
 H        1.5859970000    -1.0686390000     0.8732540000 
 H        1.4886920000    -1.6367650000    -0.7976140000 
 H       -0.7349350000    -2.2774430000     0.3104680000 
 H       -2.3997990000    -0.4794580000    -0.0706620000 
*
