! RI PBE def2-SVP def2-SVP/J NBO PAL2
% maxcore 2000
% output
    # printlevel mini
    print[ P_Basis ] 0
    print[ P_SCFInfo ] 1
    print[ P_SCFIterInfo ] 1
    print[ P_OrbEn ] 0
    print[ P_Cartesian ] 0
end
*xyz 0 1
 C        0.8533320000    -0.0722680000    -0.7301970000 
 C        2.1046110000     0.5871920000    -0.2239950000 
 C        3.4515880000    -0.0832030000    -0.3478860000 
 C        3.1681680000     1.1589700000    -1.1192780000 
 C        3.0533090000     1.1308780000    -2.6159600000 
 O        3.8501000000     2.2839000000    -0.6318130000 
 H        0.4388290000    -0.7446320000     0.0261200000 
 H        1.0424580000    -0.6701150000    -1.6242730000 
 H        0.0810480000     0.6614800000    -0.9788790000 
 H        1.9799340000     1.1544850000     0.6939530000 
 H        3.5001060000    -1.0175560000    -0.8960480000 
 H        4.1421490000     0.0026420000     0.4813150000 
 H        2.5758380000     0.2172030000    -2.9716150000 
 H        4.0477010000     1.1945180000    -3.0640880000 
 H        2.4627250000     1.9787820000    -2.9793270000 
 H        3.2992750000     3.0563250000    -0.7907210000 
*
