! RI PBE def2-SVP def2-SVP/J NBO PAL2
% maxcore 2000
% output
    # printlevel mini
    print[ P_Basis ] 0
    print[ P_SCFInfo ] 1
    print[ P_SCFIterInfo ] 1
    print[ P_OrbEn ] 0
    print[ P_Cartesian ] 0
end
*xyz 0 1
 C        0.9224580000     0.0987440000    -0.0004210000 
 C        2.4230340000     0.0668670000     0.0277870000 
 C        3.1942540000    -0.7465310000    -0.9380810000 
 C        3.1961350000     0.7618560000    -1.0753270000 
 C        4.4201750000     1.4806490000    -0.7036760000 
 O        4.8112370000     2.4972070000    -1.2127850000 
 H        0.5056950000    -0.7230970000     0.5876740000 
 H        0.5485460000     0.0003410000    -1.0223400000 
 H        0.5376900000     1.0355940000     0.4092550000 
 H        2.8660150000     0.1620080000     1.0155330000 
 H        2.6527320000    -1.2924020000    -1.7010180000 
 H        4.1138530000    -1.2166730000    -0.6091830000 
 H        2.6292310000     1.2013640000    -1.8876630000 
 H        4.9935340000     1.0029840000     0.1261350000 
*
