! RI PBE def2-SVP def2-SVP/J NBO PAL2
% maxcore 2000
% output
    # printlevel mini
    print[ P_Basis ] 0
    print[ P_SCFInfo ] 1
    print[ P_SCFIterInfo ] 1
    print[ P_OrbEn ] 0
    print[ P_Cartesian ] 0
end
*xyz 0 1
 C        0.8887200000    -0.0358400000     0.0249590000 
 C        2.3927730000     0.0089790000     0.1301520000 
 C        3.0894360000     1.0621520000     1.0178300000 
 C        4.1637080000     0.0108260000     1.3547810000 
 C        3.1399940000    -1.0606680000     0.9493960000 
 O        3.5489150000    -2.2576010000     0.3529870000 
 H        0.4962870000     0.8373820000    -0.5036340000 
 H        0.4304040000    -0.0565110000     1.0180950000 
 H        0.5585140000    -0.9279200000    -0.5140830000 
 H        2.8444490000     0.0428540000    -0.8702760000 
 H        2.4782140000     1.3049500000     1.8908370000 
 H        3.4125050000     1.9916280000     0.5486250000 
 H        4.5801260000    -0.0211480000     2.3622330000 
 H        4.9857420000     0.0474010000     0.6329780000 
 H        2.5347070000    -1.3515890000     1.8137840000 
 H        4.0996960000    -2.0423830000    -0.4048830000 
*
