! RI PBE def2-SVP def2-SVP/J NBO PAL2
% maxcore 2000
% output
    # printlevel mini
    print[ P_Basis ] 0
    print[ P_SCFInfo ] 1
    print[ P_SCFIterInfo ] 1
    print[ P_OrbEn ] 0
    print[ P_Cartesian ] 0
end
*xyz 0 1
 C        1.0321510000    -0.0375090000     0.0921920000 
 C        2.5026570000     0.1092450000     0.0967430000 
 C        3.3344650000     1.1807450000     0.0973290000 
 C        4.6653410000     0.6635110000     0.1027590000 
 C        4.5400880000    -0.6820430000     0.1050310000 
 O        3.2324060000    -1.0341540000     0.1014370000 
 H        0.5628590000     0.9460170000     0.0887190000 
 H        0.6840210000    -0.5818580000     0.9745560000 
 H        0.6898270000    -0.5853170000    -0.7903050000 
 H        3.0342950000     2.2167590000     0.0942630000 
 H        5.5882590000     1.2211820000     0.1046870000 
 H        5.2487510000    -1.4933680000     0.1089890000 
*
