! RI PBE def2-SVP def2-SVP/J NBO PAL2
% maxcore 2000
% output
    # printlevel mini
    print[ P_Basis ] 0
    print[ P_SCFInfo ] 1
    print[ P_SCFIterInfo ] 1
    print[ P_OrbEn ] 0
    print[ P_Cartesian ] 0
end
*xyz 0 1
 C        1.0539970000    -0.0678380000     0.1085120000 
 C        2.5583690000     0.0194610000     0.1722280000 
 C        3.1205350000     1.1677690000     0.9946660000 
 C        4.5094760000     0.6477450000     1.3383320000 
 C        4.2604690000    -0.8508490000     1.5061440000 
 O        3.0672140000    -1.1526550000     0.7968820000 
 H        0.6410550000     0.8089390000    -0.3964630000 
 H        0.6337220000    -0.1233910000     1.1155620000 
 H        0.7435520000    -0.9574660000    -0.4425270000 
 H        2.9610360000     0.0822450000    -0.8526180000 
 H        2.5179010000     1.2982640000     1.8995950000 
 H        3.1317270000     2.1138830000     0.4507220000 
 H        4.9379370000     1.1031240000     2.2323270000 
 H        5.1964260000     0.8324940000     0.5081790000 
 H        4.1148600000    -1.1210600000     2.5582650000 
 H        5.0851240000    -1.4555640000     1.1143040000 
*
