! RI PBE def2-SVP def2-SVP/J NBO PAL2
% maxcore 2000
% output
    # printlevel mini
    print[ P_Basis ] 0
    print[ P_SCFInfo ] 1
    print[ P_SCFIterInfo ] 1
    print[ P_OrbEn ] 0
    print[ P_Cartesian ] 0
end
*xyz 0 1
 C        1.0147590000    -0.1278670000     0.0748610000 
 C        2.3207500000    -0.0311220000    -0.1433350000 
 C        3.2028190000     1.1807070000    -0.0285750000 
 C        4.4040250000     0.7906120000    -0.8836420000 
 C        4.4347110000    -0.7140770000    -0.6762960000 
 O        3.0708960000    -1.1001790000    -0.5300040000 
 H        0.4504350000     0.7470740000     0.3643870000 
 H        0.4975060000    -1.0722610000    -0.0287870000 
 H        3.5042480000     1.3178030000     1.0155600000 
 H        2.6999630000     2.0909400000    -0.3530140000 
 H        5.3326210000     1.2774630000    -0.5843940000 
 H        4.2157860000     1.0219650000    -1.9349370000 
 H        4.9851190000    -0.9839310000     0.2335440000 
 H        4.8530620000    -1.2718250000    -1.5151690000 
*
