! RI PBE def2-SVP def2-SVP/J NBO PAL2
% maxcore 2000
% output
    # printlevel mini
    print[ P_Basis ] 0
    print[ P_SCFInfo ] 1
    print[ P_SCFIterInfo ] 1
    print[ P_OrbEn ] 0
    print[ P_Cartesian ] 0
end
*xyz 0 1
 C        1.1719770000     0.1364510000     0.0976180000 
 C        2.4687970000     0.0212420000    -0.1466130000 
 C        3.3527050000    -1.2038680000    -0.1494960000 
 C        4.6844140000    -0.6106760000    -0.5019060000 
 C        4.5195470000     0.6944270000    -0.6549540000 
 O        3.2358550000     1.1255510000    -0.4583590000 
 H        0.5871290000    -0.7395510000     0.3401680000 
 H        0.6792230000     1.0984320000     0.0594150000 
 H        3.0099400000    -1.9431680000    -0.8808530000 
 H        3.3533210000    -1.6994320000     0.8269030000 
 H        5.6113680000    -1.1506660000    -0.6112400000 
 H        5.2215340000     1.4751460000    -0.9074830000 
*
