! RI PBE def2-SVP def2-SVP/J NBO PAL2
% maxcore 2000
% output
    # printlevel mini
    print[ P_Basis ] 0
    print[ P_SCFInfo ] 1
    print[ P_SCFIterInfo ] 1
    print[ P_OrbEn ] 0
    print[ P_Cartesian ] 0
end
*xyz 0 1
 C        1.0005760000     0.1352370000     0.0535770000 
 C        2.4691360000    -0.0242580000    -0.0264940000 
 C        3.2357430000    -1.1098650000     0.0296240000 
 C        4.6767840000    -0.7124640000    -0.1014300000 
 C        4.5573440000     0.8152200000    -0.2472750000 
 O        3.1587400000     1.1399900000    -0.1846550000 
 H        0.5153780000    -0.8318170000     0.1793930000 
 H        0.6175120000     0.6096290000    -0.8540970000 
 H        0.7314470000     0.7799480000     0.8947590000 
 H        2.8756450000    -2.1198700000     0.1519330000 
 H        5.1608240000    -1.1682720000    -0.9712400000 
 H        5.2707860000    -0.9934280000     0.7743470000 
 H        4.9416200000     1.1785440000    -1.2030250000 
 H        5.0617750000     1.3565980000     0.5561030000 
*
