! RI PBE def2-SVP def2-SVP/J NBO PAL2
% maxcore 2000
% output
    # printlevel mini
    print[ P_Basis ] 0
    print[ P_SCFInfo ] 1
    print[ P_SCFIterInfo ] 1
    print[ P_OrbEn ] 0
    print[ P_Cartesian ] 0
end
*xyz 0 1
 C        0.9885480000    -0.1148960000     0.3028240000 
 C        2.4601760000     0.0539060000     0.0026310000 
 C        2.7385930000     0.0757360000    -1.4830330000 
 C        3.1849150000     1.1385070000     0.8255560000 
 C        3.9555450000    -0.0295010000     1.4379780000 
 O        3.2368910000    -0.9860860000     0.6521750000 
 H        0.4117340000     0.7142820000    -0.1159940000 
 H        0.8157640000    -0.1497950000     1.3802770000 
 H        0.6182340000    -1.0460440000    -0.1334370000 
 H        2.2190130000     0.9107920000    -1.9609290000 
 H        2.3949880000    -0.8529960000    -1.9454550000 
 H        3.8087900000     0.1770650000    -1.6740550000 
 H        2.5472710000     1.6926310000     1.5144370000 
 H        3.7782590000     1.8409250000     0.2401600000 
 H        3.8058720000    -0.1887320000     2.5107950000 
 H        5.0295170000    -0.0525040000     1.2255500000 
*
