! RI PBE def2-SVP def2-SVP/J NBO PAL2
% maxcore 2000
% output
    # printlevel mini
    print[ P_Basis ] 0
    print[ P_SCFInfo ] 1
    print[ P_SCFIterInfo ] 1
    print[ P_OrbEn ] 0
    print[ P_Cartesian ] 0
end
*xyz 0 1
 C        1.0400630000     0.0503180000     0.2460870000 
 C        2.4763440000     0.0887100000    -0.2067980000 
 C        2.9822290000    -1.1811280000    -0.9139380000 
 C        3.7130400000    -0.6007700000    -2.0910120000 
 C        3.4417960000     0.6968890000    -2.1476140000 
 O        2.6490990000     1.1687390000    -1.1555240000 
 H        0.9051640000    -0.7293260000     0.9998850000 
 H        0.3803070000    -0.1667640000    -0.5971520000 
 H        0.7419540000     1.0051110000     0.6830050000 
 H        3.1313320000     0.3258230000     0.6403550000 
 H        2.1512940000    -1.8250820000    -1.2306500000 
 H        3.6176830000    -1.7778630000    -0.2550140000 
 H        4.3025840000    -1.1532870000    -2.8061400000 
 H        3.7475100000     1.4354190000    -2.8765010000 
*
