! RI PBE def2-SVP def2-SVP/J NBO PAL2
% maxcore 2000
% output
    # printlevel mini
    print[ P_Basis ] 0
    print[ P_SCFInfo ] 1
    print[ P_SCFIterInfo ] 1
    print[ P_OrbEn ] 0
    print[ P_Cartesian ] 0
end
*xyz 0 1
 C        0.9565200000    -0.0130090000     0.3141440000 
 C        2.3835680000     0.2060970000    -0.1127760000 
 C        3.1962710000     1.2652360000     0.6418060000 
 C        4.0796870000     0.0891920000     1.0755690000 
 C        5.5137250000     0.0877340000     0.6170200000 
 O        3.2629450000    -0.8418840000     0.3393510000 
 H        0.3277510000     0.8181110000    -0.0182320000 
 H        0.8849890000    -0.0914030000     1.4017760000 
 H        0.5645720000    -0.9341880000    -0.1232210000 
 H        2.4379500000     0.2996010000    -1.2045050000 
 H        2.6565410000     1.7695150000     1.4436950000 
 H        3.6965950000     2.0069200000     0.0187400000 
 H        4.0293040000    -0.1314150000     2.1490530000 
 H        5.5803170000     0.3226990000    -0.4481380000 
 H        5.9658850000    -0.8930880000     0.7814020000 
 H        6.0926990000     0.8292820000     1.1751270000 
*
