! RI PBE def2-SVP def2-SVP/J NBO PAL2
% maxcore 2000
% output
    # printlevel mini
    print[ P_Basis ] 0
    print[ P_SCFInfo ] 1
    print[ P_SCFIterInfo ] 1
    print[ P_OrbEn ] 0
    print[ P_Cartesian ] 0
end
*xyz 0 1
 C        1.0062700000     0.0517180000    -0.1293200000 
 C        2.5177330000     0.0808730000    -0.0361140000 
 C        3.0979890000     1.1957960000     0.8287340000 
 C        4.4938170000     0.6739910000     1.1281000000 
 O        4.4024010000    -0.7453500000     1.1163680000 
 C        3.1280880000    -1.1387740000     0.6405460000 
 H        0.6199690000     0.9561670000    -0.6051430000 
 H        0.5579090000    -0.0206590000     0.8661330000 
 H        0.6584610000    -0.8032250000    -0.7150950000 
 H        2.9440280000     0.1654770000    -1.0432220000 
 H        2.5129820000     1.2874150000     1.7501590000 
 H        3.1056530000     2.1693930000     0.3350650000 
 H        4.8742540000     0.9985600000     2.1009340000 
 H        5.2097390000     0.9939680000     0.3599400000 
 H        2.4954780000    -1.4615250000     1.4817910000 
 H        3.2525180000    -1.9894130000    -0.0358570000 
*
