! RI PBE def2-SVP def2-SVP/J NBO PAL2
% maxcore 2000
% output
    # printlevel mini
    print[ P_Basis ] 0
    print[ P_SCFInfo ] 1
    print[ P_SCFIterInfo ] 1
    print[ P_OrbEn ] 0
    print[ P_Cartesian ] 0
end
*xyz 0 1
 C        0.9726840000     0.0458350000     0.2602900000 
 C        2.2799840000     0.1054560000     0.0573220000 
 C        3.1439900000     1.3358420000    -0.0047160000 
 C        4.3964420000     0.8019370000    -0.6874980000 
 O        4.5099010000    -0.5333230000    -0.2356180000 
 C        3.2008360000    -1.0654090000    -0.1928310000 
 H        0.3797670000     0.9410080000     0.4099200000 
 H        0.4454750000    -0.9019560000     0.2870810000 
 H        3.3874950000     1.6733230000     1.0079700000 
 H        2.6705620000     2.1630050000    -0.5356490000 
 H        5.3129220000     1.3276620000    -0.4175480000 
 H        4.2844090000     0.8301560000    -1.7818800000 
 H        3.1617270000    -1.8207790000     0.5954600000 
 H        2.9493050000    -1.5514570000    -1.1478130000 
*
