! RI PBE def2-SVP def2-SVP/J NBO PAL2
% maxcore 2000
% output
    # printlevel mini
    print[ P_Basis ] 0
    print[ P_SCFInfo ] 1
    print[ P_SCFIterInfo ] 1
    print[ P_OrbEn ] 0
    print[ P_Cartesian ] 0
end
*xyz 0 1
 C        1.0360710000     0.0998670000    -0.0275030000 
 C        2.5186590000     0.0266270000    -0.0474150000 
 C        3.3053660000    -1.0390450000    -0.1222790000 
 C        4.7379560000    -0.6271220000    -0.1112450000 
 O        4.7154180000     0.7885360000    -0.0225290000 
 C        3.3799610000     1.2500910000     0.0203440000 
 H        0.5855010000    -0.8914830000    -0.0849850000 
 H        0.6608020000     0.6957260000    -0.8660560000 
 H        0.6789150000     0.5858730000     0.8864370000 
 H        2.9804400000    -2.0703150000    -0.1835060000 
 H        5.2719440000    -0.9330050000    -1.0225750000 
 H        5.2900590000    -1.0434500000     0.7437960000 
 H        3.1896650000     1.9323790000    -0.8220730000 
 H        3.2080430000     1.8215200000     0.9451800000 
*
