! RI PBE def2-SVP def2-SVP/J NBO PAL2
% maxcore 2000
% output
    # printlevel mini
    print[ P_Basis ] 0
    print[ P_SCFInfo ] 1
    print[ P_SCFIterInfo ] 1
    print[ P_OrbEn ] 0
    print[ P_Cartesian ] 0
end
*xyz 0 1
 C        0.8074390000     0.0072710000     0.2011450000 
 C        2.3146740000     0.0178490000     0.0644350000 
 C        2.7497360000    -0.0020750000    -1.3884410000 
 C        3.0681600000     1.0630370000     0.9084620000 
 O        3.8709490000     0.0549510000     1.5337940000 
 C        3.0855640000    -0.9864110000     0.9417780000 
 H        0.3637310000     0.8778370000    -0.2910810000 
 H        0.5017520000     0.0217280000     1.2501620000 
 H        0.3787110000    -0.8862400000    -0.2624040000 
 H        2.3633400000     0.8698830000    -1.9243790000 
 H        2.3783480000    -0.8974250000    -1.8956500000 
 H        3.8394000000     0.0058250000    -1.4717360000 
 H        2.4441570000     1.5938970000     1.6381400000 
 H        3.6753570000     1.7883610000     0.3566320000 
 H        2.4704620000    -1.5037940000     1.6884960000 
 H        3.7051410000    -1.7188740000     0.4136460000 
*
