! RI PBE def2-SVP def2-SVP/J NBO PAL2
% maxcore 2000
% output
    # printlevel mini
    print[ P_Basis ] 0
    print[ P_SCFInfo ] 1
    print[ P_SCFIterInfo ] 1
    print[ P_OrbEn ] 0
    print[ P_Cartesian ] 0
end
*xyz 0 1
 C        0.9645000000    -0.0749260000     0.0125980000 
 C        2.4741870000    -0.0829780000    -0.0366650000 
 C        3.2259930000     1.0277800000     0.7427400000 
 C        4.1266920000    -0.0588100000     1.3125370000 
 O        5.1819990000    -0.0505230000     1.8701300000 
 C        3.2159890000    -1.1627060000     0.7942310000 
 H        0.5547770000     0.7979610000    -0.5022440000 
 H        0.6084270000    -0.0489810000     1.0471350000 
 H        0.5467150000    -0.9672620000    -0.4607500000 
 H        2.8179730000    -0.1089300000    -1.0738620000 
 H        2.6115370000     1.4766100000     1.5304450000 
 H        3.7177060000     1.8261600000     0.1845730000 
 H        2.5976300000    -1.5684010000     1.6020230000 
 H        3.7002740000    -1.9908850000     0.2742990000 
*
