! RI PBE def2-SVP def2-SVP/J NBO PAL2
% maxcore 2000
% output
    # printlevel mini
    print[ P_Basis ] 0
    print[ P_SCFInfo ] 1
    print[ P_SCFIterInfo ] 1
    print[ P_OrbEn ] 0
    print[ P_Cartesian ] 0
end
*xyz 0 1
 C        0.8766850000     0.0180690000     0.1910680000 
 C        2.3824300000    -0.0249940000     0.1008510000 
 C        3.2019960000     1.0838070000     0.7964430000 
 C        4.2177800000     0.0118940000     1.2391780000 
 O        5.2874940000    -0.1598690000     0.3335000000 
 C        3.1526050000    -1.0536640000     0.9580030000 
 H        0.4683120000     0.8716550000    -0.3576950000 
 H        0.5501200000     0.1043250000     1.2322150000 
 H        0.4273280000    -0.8885600000    -0.2242760000 
 H        2.6973460000    -0.1129400000    -0.9419110000 
 H        2.6636630000     1.5000440000     1.6531550000 
 H        3.5856860000     1.9043200000     0.1851730000 
 H        4.5912140000     0.0811960000     2.2677710000 
 H        5.8390130000     0.6261780000     0.3678980000 
 H        2.6003000000    -1.3146100000     1.8645690000 
 H        3.5113250000    -1.9649520000     0.4776770000 
*
