! RI PBE def2-SVP def2-SVP/J NBO PAL2
% maxcore 2000
% output
    # printlevel mini
    print[ P_Basis ] 0
    print[ P_SCFInfo ] 1
    print[ P_SCFIterInfo ] 1
    print[ P_OrbEn ] 0
    print[ P_Cartesian ] 0
end
*xyz 0 1
 C        0.8723260000    -0.0537200000     0.0893670000 
 C        2.3787410000    -0.1243510000     0.0485830000 
 C        3.1923160000     0.8648540000     0.8882190000 
 O        3.9853050000    -0.1911730000     1.4439120000 
 C        3.0984260000    -1.1859470000     0.8968290000 
 C        3.8268460000    -2.3092530000     0.2150680000 
 H        0.5024180000     0.8391430000    -0.4219250000 
 H        0.5090830000    -0.0227110000     1.1203990000 
 H        0.4208730000    -0.9217480000    -0.3989470000 
 H        2.7364620000    -0.1541650000    -0.9846920000 
 H        2.6013520000     1.3758940000     1.6600480000 
 H        3.8019990000     1.6014800000     0.3574150000 
 H        2.4452340000    -1.5819630000     1.6893160000 
 H        4.4733990000    -1.9248240000    -0.5770330000 
 H        3.1135690000    -3.0132290000    -0.2231670000 
 H        4.4462510000    -2.8555880000     0.9304180000 
*
