! RI PBE def2-SVP def2-SVP/J NBO PAL2
% maxcore 2000
% output
    # printlevel mini
    print[ P_Basis ] 0
    print[ P_SCFInfo ] 1
    print[ P_SCFIterInfo ] 1
    print[ P_OrbEn ] 0
    print[ P_Cartesian ] 0
end
*xyz 0 1
 C        1.0543270000     0.1792520000     0.1758090000 
 C        2.5390130000    -0.0251830000     0.0766750000 
 C        3.1424950000    -0.7856940000    -1.0678500000 
 O        2.2701880000    -1.3154580000    -2.0126860000 
 C        3.3437420000     0.6877110000    -0.9766090000 
 O        4.6348510000     1.1319720000    -0.7071240000 
 H        0.5733670000    -0.6704490000     0.6665890000 
 H        0.6070170000     0.2781420000    -0.8137060000 
 H        0.8203210000     1.0782760000     0.7522090000 
 H        3.0607580000    -0.1704120000     1.0181490000 
 H        4.0138360000    -1.3945510000    -0.8350640000 
 H        2.6928180000    -1.2639000000    -2.8742730000 
 H        2.7745340000     1.2887520000    -1.6856770000 
 H        4.5789440000     1.8698430000    -0.0938520000 
*
