! RI PBE def2-SVP def2-SVP/J NBO PAL2
% maxcore 2000
% output
    # printlevel mini
    print[ P_Basis ] 0
    print[ P_SCFInfo ] 1
    print[ P_SCFIterInfo ] 1
    print[ P_OrbEn ] 0
    print[ P_Cartesian ] 0
end
*xyz 0 1
 C        0.9855500000    -0.0498560000     0.1164350000 
 C        2.4957770000     0.0206670000     0.0847540000 
 C        3.2163320000     1.0375790000     0.9726310000 
 O        3.8842110000    -0.0379260000     1.6885110000 
 C        3.2426930000    -0.9864160000     0.9477750000 
 O        3.3199240000    -2.1634760000     1.0533730000 
 H        0.5447230000     0.7878020000    -0.4280860000 
 H        0.6109670000    -0.0262290000     1.1424190000 
 H        0.6391970000    -0.9753920000    -0.3466780000 
 H        2.8723660000     0.0049040000    -0.9408270000 
 H        2.5764920000     1.6069470000     1.6483340000 
 H        3.9438670000     1.6881970000     0.4876590000 
*
