! RI PBE def2-SVP def2-SVP/J NBO PAL2
% maxcore 2000
% output
    # printlevel mini
    print[ P_Basis ] 0
    print[ P_SCFInfo ] 1
    print[ P_SCFIterInfo ] 1
    print[ P_OrbEn ] 0
    print[ P_Cartesian ] 0
end
*xyz 0 1
 C        0.9222270000     0.0377660000     0.1805030000 
 C        2.3947870000     0.0590010000     0.0021960000 
 C        3.2169540000    -0.9695540000    -0.1672520000 
 O        4.5335780000    -0.6657930000    -0.3072620000 
 C        4.6423660000     0.7667200000    -0.2253930000 
 C        3.2231850000     1.3168940000    -0.0137880000 
 H        0.5340100000    -0.9822920000     0.1591270000 
 H        0.4144730000     0.6066740000    -0.6065680000 
 H        0.6270080000     0.4893040000     1.1343990000 
 H        2.9900890000    -2.0267610000    -0.2106480000 
 H        5.0982360000     1.1198480000    -1.1530450000 
 H        5.3149620000     1.0031010000     0.6020910000 
 H        2.9165720000     1.9951550000    -0.8178320000 
 H        3.1300650000     1.8764360000     0.9236720000 
*
