! RI PBE def2-SVP def2-SVP/J NBO PAL2
% maxcore 2000
% output
    # printlevel mini
    print[ P_Basis ] 0
    print[ P_SCFInfo ] 1
    print[ P_SCFIterInfo ] 1
    print[ P_OrbEn ] 0
    print[ P_Cartesian ] 0
end
*xyz 0 1
 C        0.8682200000     0.0305080000    -0.0854740000 
 C        2.3634740000     0.0321230000     0.0857430000 
 C        2.7865480000     0.0933330000     1.5382180000 
 O        4.1792940000     0.0832760000     1.7522580000 
 C        3.1871270000    -0.7580250000    -0.8847920000 
 C        3.1986660000     0.7448780000    -0.9284470000 
 H        0.4129690000    -0.8371330000     0.4027270000 
 H        0.5942080000    -0.0000670000    -1.1420730000 
 H        0.4211370000     0.9307330000     0.3480950000 
 H        2.3003110000    -0.7264530000     2.0877020000 
 H        2.4246300000     1.0301640000     1.9737830000 
 H        4.5055470000    -0.8033750000     1.5827470000 
 H        2.6659970000    -1.2941130000    -1.6690900000 
 H        4.0907910000    -1.2476530000    -0.5400440000 
 H        2.6932560000     1.2384460000    -1.7501150000 
 H        4.0969140000     1.2361690000    -0.5754280000 
*
