! RI PBE def2-SVP def2-SVP/J NBO PAL2
% maxcore 2000
% output
    # printlevel mini
    print[ P_Basis ] 0
    print[ P_SCFInfo ] 1
    print[ P_SCFIterInfo ] 1
    print[ P_OrbEn ] 0
    print[ P_Cartesian ] 0
end
*xyz 0 1
 C        1.0963920000    -0.0344210000    -0.0606690000 
 C        2.5928190000    -0.0307460000     0.0919060000 
 C        3.1753010000     1.1508960000     0.8669170000 
 O        4.2698720000     0.6016000000     1.5795330000 
 C        4.2853650000    -0.7824550000     1.3167060000 
 O        3.0086110000    -1.1327230000     0.8838160000 
 H        0.7726710000     0.8311550000    -0.6433130000 
 H        0.6163810000     0.0047260000     0.9194200000 
 H        0.7628880000    -0.9361130000    -0.5765580000 
 H        3.0779160000    -0.0979160000    -0.8945560000 
 H        2.4458500000     1.5567460000     1.5773950000 
 H        3.5184140000     1.9547610000     0.2089810000 
 H        4.5169230000    -1.3316610000     2.2318490000 
 H        5.0352090000    -1.0021700000     0.5377440000 
*
