! RI PBE def2-SVP def2-SVP/J NBO PAL2
% maxcore 2000
% output
    # printlevel mini
    print[ P_Basis ] 0
    print[ P_SCFInfo ] 1
    print[ P_SCFIterInfo ] 1
    print[ P_OrbEn ] 0
    print[ P_Cartesian ] 0
end
*xyz 0 1
 C        1.0830540000    -0.1596640000     0.0979930000 
 C        2.3880060000    -0.0815800000    -0.1177590000 
 C        3.2871430000     1.1177770000    -0.0222410000 
 O        4.5704880000     0.6333050000    -0.3559440000 
 C        4.4918180000    -0.7354690000    -0.6309960000 
 O        3.1508920000    -1.1416210000    -0.4794620000 
 H        0.5323890000     0.7252520000     0.3844550000 
 H        0.5506570000    -1.0947020000    -0.0063190000 
 H        3.2965860000     1.5370610000     0.9891240000 
 H        2.9898540000     1.9035280000    -0.7242820000 
 H        5.1161830000    -1.3005610000     0.0718370000 
 H        4.8092500000    -0.9341160000    -1.6619160000 
*
