! RI PBE def2-SVP def2-SVP/J NBO PAL2
% maxcore 2000
% output
    # printlevel mini
    print[ P_Basis ] 0
    print[ P_SCFInfo ] 1
    print[ P_SCFIterInfo ] 1
    print[ P_OrbEn ] 0
    print[ P_Cartesian ] 0
end
*xyz 0 1
 C        1.1082280000     0.1304330000     0.0957100000 
 C        2.5678920000     0.0013940000    -0.0514930000 
 C        3.3885980000    -1.0365100000    -0.0976550000 
 O        4.6967870000    -0.6324760000    -0.2491740000 
 C        4.6492260000     0.7821680000    -0.2981220000 
 O        3.2921030000     1.1708190000    -0.1711910000 
 H        0.6497030000    -0.8546830000     0.1807350000 
 H        0.6736610000     0.6453240000    -0.7661170000 
 H        0.8563900000     0.7116330000     0.9876150000 
 H        3.2051510000    -2.0952310000    -0.0384140000 
 H        5.0456840000     1.1336460000    -1.2592880000 
 H        5.2326960000     1.2018830000     0.5312950000 
*
