! RI PBE def2-SVP def2-SVP/J NBO PAL2
% maxcore 2000
% output
    # printlevel mini
    print[ P_Basis ] 0
    print[ P_SCFInfo ] 1
    print[ P_SCFIterInfo ] 1
    print[ P_OrbEn ] 0
    print[ P_Cartesian ] 0
end
*xyz 0 1
 C        0.9868380000     0.1647800000    -0.1421480000 
 C        2.4782080000     0.2841170000    -0.1047120000 
 O        3.2212080000    -0.3940770000    -1.1115600000 
 C        3.3032430000     1.0325350000    -1.0606180000 
 C        2.7077200000     1.7566730000    -2.2346030000 
 C        4.6382940000     1.5572670000    -0.6089250000 
 H        0.6823050000    -0.8205110000     0.2202440000 
 H        0.5911970000     0.2879550000    -1.1495140000 
 H        0.5293760000     0.9151870000     0.5084760000 
 H        2.9053260000     0.1642640000     0.8931220000 
 H        1.7698300000     1.3081170000    -2.5574510000 
 H        3.4022490000     1.7267440000    -3.0786930000 
 H        2.5277190000     2.8066070000    -1.9883190000 
 H        5.0211100000     0.9710760000     0.2275080000 
 H        4.5607280000     2.6025670000    -0.2979760000 
 H        5.3634680000     1.5029970000    -1.4257300000 
*
