! RI PBE def2-SVP def2-SVP/J NBO PAL2
% maxcore 2000
% output
    # printlevel mini
    print[ P_Basis ] 0
    print[ P_SCFInfo ] 1
    print[ P_SCFIterInfo ] 1
    print[ P_OrbEn ] 0
    print[ P_Cartesian ] 0
end
*xyz 0 1
 C        1.1620140000    -0.1869850000     0.1132510000 
 C        2.6083640000     0.1248230000    -0.0995210000 
 O        3.1689720000    -0.2550520000    -1.3475160000 
 C        3.0707020000     1.1306000000    -1.0667440000 
 C        4.3282500000     1.8821340000    -0.8892290000 
 C        5.5357630000     1.3454400000    -0.9938730000 
 H        1.0271500000    -1.2505620000     0.3261540000 
 H        0.5789570000     0.0606740000    -0.7754950000 
 H        0.7682210000     0.3786040000     0.9616660000 
 H        3.2715540000    -0.0632090000     0.7446880000 
 H        2.2951670000     1.6449880000    -1.6360720000 
 H        4.2125630000     2.9400880000    -0.6654330000 
 H        5.6552520000     0.2953060000    -1.2357870000 
 H        6.4302720000     1.9383530000    -0.8474090000 
*
