! RI PBE def2-SVP def2-SVP/J NBO PAL2
% maxcore 2000
% output
    # printlevel mini
    print[ P_Basis ] 0
    print[ P_SCFInfo ] 1
    print[ P_SCFIterInfo ] 1
    print[ P_OrbEn ] 0
    print[ P_Cartesian ] 0
end
*xyz 0 1
 C        1.0212270000    -0.0597590000    -0.0724970000 
 C        2.4951080000     0.1432390000     0.0734600000 
 O        3.3387940000    -0.7391210000    -0.6636480000 
 C        3.3352960000     0.6368240000    -1.0113950000 
 C        4.6183240000     1.3777780000    -0.7584970000 
 O        4.4412350000     2.7779640000    -0.7826850000 
 H        0.6926160000    -0.9276400000     0.5044980000 
 H        0.7558420000    -0.2238090000    -1.1184110000 
 H        0.4784350000     0.8151450000     0.2943740000 
 H        2.8493030000     0.3308350000     1.0873340000 
 H        2.8491840000     0.8555050000    -1.9650980000 
 H        5.3775710000     1.0559580000    -1.4842380000 
 H        4.9896400000     1.1220330000     0.2361540000 
 H        4.2905540000     3.0542380000    -1.6897400000 
*
