! RI PBE def2-SVP def2-SVP/J NBO PAL2
% maxcore 2000
% output
    # printlevel mini
    print[ P_Basis ] 0
    print[ P_SCFInfo ] 1
    print[ P_SCFIterInfo ] 1
    print[ P_OrbEn ] 0
    print[ P_Cartesian ] 0
end
*xyz 0 1
 C        0.9102640000     0.0903560000    -0.0278680000 
 C        2.3855000000     0.2517740000     0.1534000000 
 O        3.2305000000    -0.6736770000    -0.4937120000 
 C        3.2533570000     0.6692380000    -0.9603660000 
 C        4.4917570000     1.4257690000    -0.6533990000 
 O        4.8640890000     2.3793330000    -1.2792290000 
 H        0.5347900000    -0.7064840000     0.6185120000 
 H        0.6732010000    -0.1627730000    -1.0620190000 
 H        0.3914820000     1.0144320000     0.2375910000 
 H        2.7165440000     0.5095020000     1.1601340000 
 H        2.8110310000     0.8495080000    -1.9371940000 
 H        5.0528850000     1.0372320000     0.2241590000 
*
