! RI PBE def2-SVP def2-SVP/J NBO PAL2
% maxcore 2000
% output
    # printlevel mini
    print[ P_Basis ] 0
    print[ P_SCFInfo ] 1
    print[ P_SCFIterInfo ] 1
    print[ P_OrbEn ] 0
    print[ P_Cartesian ] 0
end
*xyz 0 1
 C        0.8821600000    -0.0857800000     0.0159330000 
 C        2.3915010000    -0.0805780000     0.0053050000 
 O        2.8885500000    -0.1666000000    -1.3206150000 
 C        3.1300960000     1.0129540000     0.8161010000 
 C        4.1518490000    -0.0521720000     1.2582750000 
 C        3.1434620000    -1.1375960000     0.8354180000 
 H        0.4869710000     0.7891670000    -0.5119120000 
 H        0.4934360000    -0.0616000000     1.0362990000 
 H        0.5037610000    -0.9821800000    -0.4814440000 
 H        2.5799870000     0.6052030000    -1.8044760000 
 H        2.5238670000     1.3728870000     1.6508330000 
 H        3.4964900000     1.8702350000     0.2470700000 
 H        4.4657020000    -0.0387010000     2.3024260000 
 H        5.0374990000    -0.0545940000     0.6229780000 
 H        2.5385800000    -1.4893250000     1.6736550000 
 H        3.5145090000    -1.9940110000     0.2716640000 
*
