! RI PBE def2-SVP def2-SVP/J NBO PAL2
% maxcore 2000
% output
    # printlevel mini
    print[ P_Basis ] 0
    print[ P_SCFInfo ] 1
    print[ P_SCFIterInfo ] 1
    print[ P_OrbEn ] 0
    print[ P_Cartesian ] 0
end
*xyz 0 1
 C        0.8987900000     0.0308810000    -0.0739950000 
 C        2.3781750000    -0.0639470000     0.2443950000 
 O        2.6408430000    -1.2416250000     1.0031340000 
 C        3.3769680000    -0.9312530000     2.1715380000 
 C        3.4665280000     0.5582820000     2.1894130000 
 C        2.9087280000     1.0487670000     1.0944100000 
 H        0.5734360000    -0.8599450000    -0.6145320000 
 H        0.6963640000     0.9043850000    -0.6992880000 
 H        0.3157240000     0.1137650000     0.8455890000 
 H        2.9392850000    -0.1220080000    -0.7029770000 
 H        4.3712370000    -1.4015180000     2.1320520000 
 H        2.8601200000    -1.3360380000     3.0519500000 
 H        3.9343720000     1.1206340000     2.9871140000 
 H        2.8322310000     2.0926990000     0.8187970000 
*
