! RI PBE def2-SVP def2-SVP/J NBO PAL2
% maxcore 2000
% output
    # printlevel mini
    print[ P_Basis ] 0
    print[ P_SCFInfo ] 1
    print[ P_SCFIterInfo ] 1
    print[ P_OrbEn ] 0
    print[ P_Cartesian ] 0
end
*xyz 0 1
 C        1.0761930000    -0.0893070000     0.0483060000 
 C        2.5751550000    -0.1088600000     0.0896940000 
 O        3.0692860000     0.9543540000     0.8574930000 
 C        4.3750210000     0.5539610000     1.2069690000 
 C        4.2351050000    -0.9575790000     1.4073200000 
 O        3.0448390000    -1.2859230000     0.7124980000 
 H        0.7278320000     0.8244670000    -0.4352720000 
 H        0.6807680000    -0.1349280000     1.0638370000 
 H        0.7114220000    -0.9475240000    -0.5173050000 
 H        3.0041310000    -0.0496740000    -0.9278970000 
 H        4.6784870000     1.0917940000     2.1049760000 
 H        5.0785960000     0.7840220000     0.3953850000 
 H        4.1124930000    -1.2270810000     2.4601390000 
 H        5.0865820000    -1.5099120000     0.9972680000 
*
