! RI PBE def2-SVP def2-SVP/J NBO PAL2
% maxcore 2000
% output
    # printlevel mini
    print[ P_Basis ] 0
    print[ P_SCFInfo ] 1
    print[ P_SCFIterInfo ] 1
    print[ P_OrbEn ] 0
    print[ P_Cartesian ] 0
end
*xyz 0 1
 C        2.5826850000     1.4244430000     0.2483860000 
 C        2.4723350000    -0.0859370000     0.1072150000 
 C        2.8964380000    -0.8244110000     1.3468820000 
 C        3.3476340000    -2.2593550000     1.2770120000 
 C        4.3333030000    -1.1844430000     1.5670840000 
 O        4.8698580000    -1.1738090000     2.8528090000 
 H        2.2652170000     1.9359500000    -0.6632430000 
 H        3.6125220000     1.7260150000     0.4586790000 
 H        1.9574120000     1.7892760000     1.0679340000 
 H        3.0854130000    -0.4245540000    -0.7358970000 
 H        1.4411610000    -0.3593600000    -0.1441950000 
 H        2.3580670000    -0.5620120000     2.2539970000 
 H        3.3818860000    -2.7429270000     0.3077860000 
 H        3.0900520000    -2.9053250000     2.1067570000 
 H        5.0351400000    -0.9238420000     0.7753460000 
 H        5.0047760000    -0.2588990000     3.1139470000 
*
