! RI PBE def2-SVP def2-SVP/J NBO PAL2
% maxcore 2000
% output
    # printlevel mini
    print[ P_Basis ] 0
    print[ P_SCFInfo ] 1
    print[ P_SCFIterInfo ] 1
    print[ P_OrbEn ] 0
    print[ P_Cartesian ] 0
end
*xyz 0 1
 C        3.4115430000     0.0627840000    -1.0110550000 
 C        2.4583910000    -0.0690010000     0.1649020000 
 C        3.0112030000    -0.9385300000     1.2637270000 
 C        2.0781010000    -1.3680910000     2.4021270000 
 C        2.4911980000    -2.7866840000     2.0093740000 
 O        3.1954220000    -2.3106700000     0.8552590000 
 H        2.9795700000     0.6744070000    -1.8059350000 
 H        3.6444480000    -0.9191720000    -1.4279340000 
 H        4.3528250000     0.5283500000    -0.7056160000 
 H        1.5045440000    -0.4937970000    -0.1665400000 
 H        2.2377450000     0.9168510000     0.5920120000 
 H        3.9651910000    -0.5257690000     1.6231100000 
 H        1.0291670000    -1.1386630000     2.2096650000 
 H        2.3446540000    -1.0386140000     3.4053760000 
 H        1.6898270000    -3.4813260000     1.7420530000 
 H        3.1667790000    -3.2776650000     2.7192840000 
*
