! RI PBE def2-SVP def2-SVP/J NBO PAL2
% maxcore 2000
% output
    # printlevel mini
    print[ P_Basis ] 0
    print[ P_SCFInfo ] 1
    print[ P_SCFIterInfo ] 1
    print[ P_OrbEn ] 0
    print[ P_Cartesian ] 0
end
*xyz 0 1
 C        3.3616400000     0.0340050000    -1.1585040000 
 C        2.4773340000     0.0975500000     0.0760960000 
 C        3.0499870000    -0.6670620000     1.2486320000 
 C        2.1611870000    -0.8484590000     2.4852830000 
 O        2.2424360000    -2.2769890000     2.3990110000 
 C        3.0068380000    -2.2010620000     1.1889530000 
 H        2.9216030000     0.5817190000    -1.9945430000 
 H        3.5132400000    -0.9990000000    -1.4843010000 
 H        4.3470410000     0.4645500000    -0.9596810000 
 H        1.4832090000    -0.3021100000    -0.1567640000 
 H        2.3258210000     1.1429240000     0.3688770000 
 H        4.0441590000    -0.2863320000     1.4968320000 
 H        1.1312010000    -0.4912370000     2.3621820000 
 H        2.5584150000    -0.4739590000     3.4339870000 
 H        2.4538410000    -2.6094760000     0.3332980000 
 H        3.9633690000    -2.7253840000     1.2781320000 
*
