! RI PBE def2-SVP def2-SVP/J NBO PAL2
% maxcore 2000
% output
    # printlevel mini
    print[ P_Basis ] 0
    print[ P_SCFInfo ] 1
    print[ P_SCFIterInfo ] 1
    print[ P_OrbEn ] 0
    print[ P_Cartesian ] 0
end
*xyz 0 1
 C        1.9993370000     1.2420880000    -0.2498720000 
 C        2.4305800000     0.0947090000     0.2569020000 
 C        3.1269220000    -0.9648490000    -0.5101070000 
 C        4.4302700000    -1.5461840000     0.0689530000 
 O        3.9372760000    -2.8870340000    -0.0240320000 
 C        2.6293730000    -2.4152030000    -0.3654010000 
 H        1.4952700000     1.9802540000     0.3628400000 
 H        2.1362980000     1.4834780000    -1.2995350000 
 H        2.2739450000    -0.1103520000     1.3156150000 
 H        3.2371910000    -0.6707890000    -1.5554070000 
 H        4.6250610000    -1.2547470000     1.1083160000 
 H        5.3370250000    -1.3959630000    -0.5235920000 
 H        1.9163210000    -2.5618310000     0.4550840000 
 H        2.2405310000    -2.8902870000    -1.2703530000 
*
