! RI PBE def2-SVP def2-SVP/J NBO PAL2
% maxcore 2000
% output
    # printlevel mini
    print[ P_Basis ] 0
    print[ P_SCFInfo ] 1
    print[ P_SCFIterInfo ] 1
    print[ P_OrbEn ] 0
    print[ P_Cartesian ] 0
end
*xyz 0 1
 C        0.8597600000     0.0623340000    -0.0256570000 
 C        2.0606190000     0.0628100000    -0.0412840000 
 C        3.5030040000     0.0633320000    -0.0380270000 
 C        4.2456920000     1.0861590000     0.8452700000 
 O        5.0680690000     0.0592680000     1.4076770000 
 C        4.2464440000    -0.9645980000     0.8386910000 
 H       -0.2045090000     0.0619260000    -0.0154060000 
 H        3.8839780000     0.0667570000    -1.0614340000 
 H        3.6038490000     1.5569000000     1.5972450000 
 H        4.8305810000     1.8481500000     0.3246640000 
 H        3.6049440000    -1.4406190000     1.5876290000 
 H        4.8318900000    -1.7228080000     0.3132130000 
*
