! RI PBE def2-SVP def2-SVP/J NBO PAL2
% maxcore 2000
% output
    # printlevel mini
    print[ P_Basis ] 0
    print[ P_SCFInfo ] 1
    print[ P_SCFIterInfo ] 1
    print[ P_OrbEn ] 0
    print[ P_Cartesian ] 0
end
*xyz 0 1
 C        3.1720370000    -1.1662080000     0.4173340000 
 C        2.3376160000    -0.0128270000    -0.1179520000 
 C        3.1548990000     1.2255370000    -0.3346800000 
 O        2.4464310000     2.4428630000    -0.5260460000 
 C        3.2375890000     2.3026930000     0.6487970000 
 C        4.4235380000     3.2059450000     0.7711010000 
 H        2.5644300000    -2.0636710000     0.5487000000 
 H        3.6165550000    -0.9187340000     1.3847570000 
 H        3.9873020000    -1.4176400000    -0.2665600000 
 H        1.5197600000     0.2246810000     0.5688310000 
 H        1.8733390000    -0.2967350000    -1.0687810000 
 H        4.0077030000     1.1080360000    -1.0066300000 
 H        2.6427500000     2.1822380000     1.5554610000 
 H        4.9711800000     3.2521690000    -0.1718970000 
 H        5.1001590000     2.8485720000     1.5519960000 
 H        4.1105020000     4.2194120000     1.0347780000 
*
