! RI PBE def2-SVP def2-SVP/J NBO PAL2
% maxcore 2000
% output
    # printlevel mini
    print[ P_Basis ] 0
    print[ P_SCFInfo ] 1
    print[ P_SCFIterInfo ] 1
    print[ P_OrbEn ] 0
    print[ P_Cartesian ] 0
end
*xyz 0 1
 C        3.2881340000     0.5514820000    -1.3153710000 
 C        2.4840310000    -0.0165320000    -0.1594740000 
 C        2.9936850000     0.2793000000     1.2306450000 
 O        2.1620100000    -0.2436420000     2.2312620000 
 C        4.4550560000     0.3474320000     1.5547140000 
 C        3.5948340000     1.5866710000     1.6021750000 
 H        2.8258960000     0.2807590000    -2.2668000000 
 H        4.3107160000     0.1675010000    -1.3297620000 
 H        3.3373850000     1.6420400000    -1.2774360000 
 H        2.4236810000    -1.1078270000    -0.2670880000 
 H        1.4531280000     0.3502690000    -0.2084610000 
 H        2.2204990000    -1.2031000000     2.1930290000 
 H        5.1817940000     0.2603550000     0.7564580000 
 H        4.7615740000    -0.0768080000     2.5027120000 
 H        3.7369670000     2.3376350000     0.8355980000 
 H        3.3305200000     1.9708460000     2.5789010000 
*
