! RI PBE def2-SVP def2-SVP/J NBO PAL2
% maxcore 2000
% output
    # printlevel mini
    print[ P_Basis ] 0
    print[ P_SCFInfo ] 1
    print[ P_SCFIterInfo ] 1
    print[ P_OrbEn ] 0
    print[ P_Cartesian ] 0
end
*xyz 0 1
 C        1.1761130000     0.7011600000     0.3142840000 
 C        2.1016850000     0.1727170000    -0.4731950000 
 C        3.1339750000    -0.8157150000    -0.0379000000 
 C        4.5344050000    -0.3215150000    -0.2838600000 
 C        5.3309300000     0.3001830000     0.7663400000 
 O        5.5801930000    -1.0354190000     0.3519850000 
 H        0.4506460000     1.4130420000    -0.0618740000 
 H        1.1062330000     0.4350850000     1.3646240000 
 H        2.1318190000     0.4681600000    -1.5209160000 
 H        3.0040020000    -1.7523430000    -0.5952220000 
 H        3.0175890000    -1.0533380000     1.0227270000 
 H        4.7557480000    -0.0419530000    -1.3144550000 
 H        4.9036530000     0.4051460000     1.7610710000 
 H        6.1052080000     1.0188990000     0.5098800000 
*
