! RI PBE def2-SVP def2-SVP/J NBO PAL2
% maxcore 2000
% output
    # printlevel mini
    print[ P_Basis ] 0
    print[ P_SCFInfo ] 1
    print[ P_SCFIterInfo ] 1
    print[ P_OrbEn ] 0
    print[ P_Cartesian ] 0
end
*xyz 0 1
 C        0.9258320000     0.1526370000     0.0858000000 
 C        2.1235440000     0.0829280000     0.0768930000 
 C        3.5736970000    -0.0239510000     0.0660680000 
 C        4.0721200000    -1.3060250000     0.6845690000 
 C        5.3853380000    -1.3767720000     1.3136210000 
 O        4.2005500000    -1.3254700000     2.0920900000 
 H       -0.1362010000     0.2198610000     0.0984790000 
 H        4.0121390000     0.8212440000     0.6056120000 
 H        3.9320210000     0.0328840000    -0.9685270000 
 H        3.6501480000    -2.2167340000     0.2631820000 
 H        6.0052630000    -0.4836370000     1.3532440000 
 H        5.9219680000    -2.3216840000     1.3403690000 
*
