! RI PBE def2-SVP def2-SVP/J NBO PAL2
% maxcore 2000
% output
    # printlevel mini
    print[ P_Basis ] 0
    print[ P_SCFInfo ] 1
    print[ P_SCFIterInfo ] 1
    print[ P_OrbEn ] 0
    print[ P_Cartesian ] 0
end
*xyz 0 1
 C        0.8755230000     0.1196930000     0.1460780000 
 C        2.3808170000     0.0456310000    -0.0909140000 
 C        3.0873980000     1.2640780000     0.4830490000 
 C        2.9023110000    -1.2639530000     0.4499180000 
 C        4.2053590000    -1.4552630000     1.0778390000 
 O        3.0228150000    -1.3943940000     1.8600900000 
 H        0.4528590000     1.0216340000    -0.3024730000 
 H        0.6592240000     0.1403470000     1.2174380000 
 H        0.3596360000    -0.7432050000    -0.2833050000 
 H        2.5558180000     0.0167920000    -1.1746380000 
 H        3.0400350000     1.2571460000     1.5748420000 
 H        2.6074650000     2.1802840000     0.1323270000 
 H        4.1368870000     1.3075220000     0.1843910000 
 H        2.4546330000    -2.1413610000    -0.0199810000 
 H        4.8805240000    -0.6127130000     1.1974930000 
 H        4.6825940000    -2.4316580000     1.0337450000 
*
