! RI PBE def2-SVP def2-SVP/J NBO PAL2
% maxcore 2000
% output
    # printlevel mini
    print[ P_Basis ] 0
    print[ P_SCFInfo ] 1
    print[ P_SCFIterInfo ] 1
    print[ P_OrbEn ] 0
    print[ P_Cartesian ] 0
end
*xyz 0 1
 C        1.0242100000    -0.0550330000    -0.0460580000 
 C        2.5428390000    -0.0196290000    -0.0616450000 
 C        3.1036030000     1.1824650000    -0.8057470000 
 C        4.6231350000     1.2230260000    -0.8313880000 
 C        5.1690760000     2.4321780000    -1.5656080000 
 O        6.5792600000     2.4470060000    -1.6453310000 
 H        0.6482590000    -0.9275780000     0.4931020000 
 H        0.6201040000    -0.0932720000    -1.0616340000 
 H        0.6134400000     0.8359960000     0.4372590000 
 H        2.9280100000    -0.9376670000    -0.5200730000 
 H        2.9213540000    -0.0145980000     0.9671180000 
 H        2.7190430000     2.1019860000    -0.3465210000 
 H        2.7231750000     1.1782200000    -1.8348970000 
 H        5.0171120000     0.3179390000    -1.3063270000 
 H        5.0047770000     1.2259850000     0.1987060000 
 H        4.7928690000     3.3545040000    -1.0983540000 
 H        4.8159450000     2.4318100000    -2.6005000000 
 H        6.9298790000     2.4443420000    -0.7510900000 
*
