! RI PBE def2-SVP def2-SVP/J NBO PAL2
% maxcore 2000
% output
    # printlevel mini
    print[ P_Basis ] 0
    print[ P_SCFInfo ] 1
    print[ P_SCFIterInfo ] 1
    print[ P_OrbEn ] 0
    print[ P_Cartesian ] 0
end
*xyz 0 1
 C        0.9314900000    -0.2157060000    -0.0893500000 
 C        2.2406340000     0.0082170000     0.0340810000 
 C        2.9600790000     0.9001260000    -0.7934280000 
 C        3.6207060000     1.6506590000    -1.4737620000 
 C        4.3447920000     2.5585780000    -2.3182270000 
 O        5.5268760000     2.7763920000    -2.2251320000 
 H        0.4232350000    -0.9091990000     0.5691670000 
 H        0.3415700000     0.2861460000    -0.8468800000 
 H        2.8127620000    -0.5064030000     0.8013330000 
 H        3.7256550000     3.0617900000    -3.0853930000 
*
