! RI PBE def2-SVP def2-SVP/J NBO PAL2
% maxcore 2000
% output
    # printlevel mini
    print[ P_Basis ] 0
    print[ P_SCFInfo ] 1
    print[ P_SCFIterInfo ] 1
    print[ P_OrbEn ] 0
    print[ P_Cartesian ] 0
end
*xyz 0 1
 C        2.7688730000     1.1519610000     0.7767770000 
 C        2.3570600000     0.0774980000     0.1170320000 
 C        3.2105320000    -0.9396600000    -0.5671040000 
 C        4.7012260000    -0.6982100000    -0.4859740000 
 C        5.5295710000    -1.7353470000    -1.1815280000 
 O        5.0925850000    -2.6902680000    -1.7635440000 
 H        2.0599740000     1.8288140000     1.2387930000 
 H        3.8185990000     1.4024460000     0.8848690000 
 H        1.2869100000    -0.1087730000     0.0505280000 
 H        2.9116880000    -1.0073400000    -1.6197050000 
 H        2.9817980000    -1.9310610000    -0.1588600000 
 H        5.0507380000    -0.6549810000     0.5547600000 
 H        4.9802190000     0.2741700000    -0.9146780000 
 H        6.6274270000    -1.5654600000    -1.1262640000 
*
