! RI PBE def2-SVP def2-SVP/J NBO PAL2
% maxcore 2000
% output
    # printlevel mini
    print[ P_Basis ] 0
    print[ P_SCFInfo ] 1
    print[ P_SCFIterInfo ] 1
    print[ P_OrbEn ] 0
    print[ P_Cartesian ] 0
end
*xyz 0 1
 C        0.4993450000    -0.3896210000     0.0961700000 
 C        1.9493400000    -0.1358320000    -0.1365400000 
 C        2.9460810000    -0.8619440000     0.3614800000 
 C        4.3960840000    -0.6190390000     0.0999030000 
 C        4.9848380000    -1.6897350000    -0.8133800000 
 O        4.3812910000    -1.6943860000    -2.0848970000 
 H        0.0269310000     0.4635140000     0.5935280000 
 H        0.3419310000    -1.2747790000     0.7155090000 
 H       -0.0346760000    -0.5331070000    -0.8484220000 
 H        2.1981640000     0.7290370000    -0.7510740000 
 H        2.7036710000    -1.7274060000     0.9794850000 
 H        4.9564900000    -0.6195630000     1.0421140000 
 H        4.5351690000     0.3599720000    -0.3683410000 
 H        4.8959550000    -2.6753440000    -0.3317580000 
 H        6.0482330000    -1.4992990000    -0.9761890000 
 H        3.4278640000    -1.6646600000    -1.9470990000 
*
