! RI PBE def2-SVP def2-SVP/J NBO PAL2
% maxcore 2000
% output
    # printlevel mini
    print[ P_Basis ] 0
    print[ P_SCFInfo ] 1
    print[ P_SCFIterInfo ] 1
    print[ P_OrbEn ] 0
    print[ P_Cartesian ] 0
end
*xyz 0 1
 C        0.8296900000    -0.0249910000    -0.1773980000 
 C        2.3056700000    -0.1236360000    -0.0410170000 
 C        3.1276390000    -0.6153570000    -0.9678040000 
 C        4.5938260000    -0.7156810000    -0.8376290000 
 C        5.2588020000    -0.2353070000     0.4281620000 
 O        5.2472480000    -1.1814590000    -1.7468020000 
 H        0.5006150000     1.0143990000    -0.0771320000 
 H        0.3293670000    -0.5848020000     0.6194480000 
 H        0.4859550000    -0.4071500000    -1.1392600000 
 H        2.7253150000     0.2391560000     0.8950310000 
 H        2.7409240000    -0.9859220000    -1.9136110000 
 H        4.8841660000    -0.7826590000     1.2969310000 
 H        5.0561980000     0.8255460000     0.5962410000 
 H        6.3323950000    -0.3888380000     0.3393600000 
*
