! RI PBE def2-SVP def2-SVP/J NBO PAL2
% maxcore 2000
% output
    # printlevel mini
    print[ P_Basis ] 0
    print[ P_SCFInfo ] 1
    print[ P_SCFIterInfo ] 1
    print[ P_OrbEn ] 0
    print[ P_Cartesian ] 0
end
*xyz 0 1
 C        0.7595560000     0.0309940000     0.0109440000 
 C        2.2459880000    -0.0336540000     0.0705500000 
 C        3.0224090000     0.8317380000     0.7127850000 
 C        4.5180600000     0.7742240000     0.7514250000 
 C        5.1078170000     1.8933910000    -0.0710570000 
 O        5.7904950000     2.7776540000     0.3643820000 
 H        0.4109640000     0.1020080000    -1.0241780000 
 H        0.3734700000     0.8910480000     0.5609660000 
 H        0.3102170000    -0.8746300000     0.4303380000 
 H        2.7163230000    -0.8674150000    -0.4499900000 
 H        2.5635120000     1.6678560000     1.2377340000 
 H        4.8608220000    -0.1728600000     0.3189370000 
 H        4.9031540000     0.8603960000     1.7704580000 
 H        4.8426220000     1.8567590000    -1.1507840000 
*
