! RI PBE def2-SVP def2-SVP/J NBO PAL2
% maxcore 2000
% output
    # printlevel mini
    print[ P_Basis ] 0
    print[ P_SCFInfo ] 1
    print[ P_SCFIterInfo ] 1
    print[ P_OrbEn ] 0
    print[ P_Cartesian ] 0
end
*xyz 0 1
 C        0.7325250000    -0.3369150000    -0.0999400000 
 C        2.1831110000    -0.2746510000     0.2620680000 
 C        2.6595450000    -0.8249200000     1.3779110000 
 C        3.0760740000     0.4879210000    -0.6738110000 
 C        2.9803650000     1.9943740000    -0.4374070000 
 O        3.4095870000     2.3602790000     0.8505760000 
 H        0.1422100000    -0.8278480000     0.6745040000 
 H        0.5971550000    -0.8872100000    -1.0369980000 
 H        0.3196550000     0.6632520000    -0.2648190000 
 H        2.0118590000    -1.3449820000     2.0757450000 
 H        3.7180520000    -0.7946100000     1.6140300000 
 H        2.8014270000     0.2790690000    -1.7139430000 
 H        4.1165140000     0.1839620000    -0.5335160000 
 H        1.9526260000     2.3401880000    -0.6225560000 
 H        3.6309180000     2.5172680000    -1.1422290000 
 H        2.9928870000     1.7547240000     1.4750650000 
*
