! RI PBE def2-SVP def2-SVP/J NBO PAL2
% maxcore 2000
% output
    # printlevel mini
    print[ P_Basis ] 0
    print[ P_SCFInfo ] 1
    print[ P_SCFIterInfo ] 1
    print[ P_OrbEn ] 0
    print[ P_Cartesian ] 0
end
*xyz 0 1
 C        0.8291310000     0.2563210000    -0.1213180000 
 C        2.3222080000    -0.0000170000    -0.2241720000 
 C        2.6617820000    -1.4591140000    -0.3190930000 
 C        3.5758910000    -2.0800550000     0.4129540000 
 C        2.9410620000     0.7019820000    -1.4177730000 
 O        2.3303430000     1.3221440000    -2.2418380000 
 H        0.4218840000    -0.2119500000     0.7761720000 
 H        0.3074200000    -0.1494110000    -0.9902800000 
 H        0.6199050000     1.3265220000    -0.0878840000 
 H        2.8473690000     0.4070960000     0.6514430000 
 H        2.1079250000    -2.0176990000    -1.0718450000 
 H        4.1447090000    -1.5577060000     1.1761280000 
 H        3.7828450000    -3.1358360000     0.2823800000 
 H        4.0448260000     0.5898220000    -1.4870850000 
*
