! RI PBE def2-SVP def2-SVP/J NBO PAL2
% maxcore 2000
% output
    # printlevel mini
    print[ P_Basis ] 0
    print[ P_SCFInfo ] 1
    print[ P_SCFIterInfo ] 1
    print[ P_OrbEn ] 0
    print[ P_Cartesian ] 0
end
*xyz 0 1
 C        0.7904170000    -0.6086550000     0.2390130000 
 C        2.2055180000    -0.2455340000    -0.1898940000 
 C        2.5475450000    -0.9130130000    -1.5167240000 
 C        2.3720250000     1.2720670000    -0.2374270000 
 C        3.7914810000     1.7529920000    -0.4743360000 
 O        3.9193310000     3.1557220000    -0.3507860000 
 H        0.6665920000    -1.6915110000     0.3214960000 
 H        0.0594940000    -0.2465890000    -0.4911960000 
 H        0.5405730000    -0.1661050000     1.2066330000 
 H        2.8968780000    -0.6306140000     0.5720170000 
 H        1.9089110000    -0.5269990000    -2.3183150000 
 H        2.3893310000    -1.9931280000    -1.4613610000 
 H        3.5865050000    -0.7485100000    -1.8094410000 
 H        2.0290840000     1.7041280000     0.7088080000 
 H        1.7159910000     1.6773120000    -1.0214150000 
 H        4.1593870000     1.4184420000    -1.4532140000 
 H        4.4583370000     1.3297630000     0.2824610000 
 H        3.3436280000     3.5672120000    -1.0003100000 
*
