! RI PBE def2-SVP def2-SVP/J NBO PAL2
% maxcore 2000
% output
    # printlevel mini
    print[ P_Basis ] 0
    print[ P_SCFInfo ] 1
    print[ P_SCFIterInfo ] 1
    print[ P_OrbEn ] 0
    print[ P_Cartesian ] 0
end
*xyz 0 1
 C        0.9900150000     0.0151970000     0.0084950000 
 C        2.4809460000    -0.0216640000    -0.1288060000 
 C        2.9795600000    -0.9475910000    -1.1943530000 
 C        3.2563420000     0.7178440000     0.6682670000 
 C        4.7436400000     0.8170530000     0.6691490000 
 O        5.1848910000     2.1536250000     0.4830000000 
 H        0.5957160000    -0.9804400000     0.2394380000 
 H        0.5200250000     0.3241130000    -0.9315280000 
 H        0.6715610000     0.7004200000     0.7949720000 
 H        2.4922460000    -0.7237170000    -2.1489760000 
 H        2.7191130000    -1.9832530000    -0.9509070000 
 H        4.0573150000    -0.9008950000    -1.3417280000 
 H        2.7689310000     1.3538450000     1.4054470000 
 H        5.1956780000     0.1512310000    -0.0747340000 
 H        5.1392080000     0.5210640000     1.6456100000 
 H        4.7490140000     2.4933890000    -0.3032680000 
*
