! RI PBE def2-SVP def2-SVP/J NBO PAL2
% maxcore 2000
% output
    # printlevel mini
    print[ P_Basis ] 0
    print[ P_SCFInfo ] 1
    print[ P_SCFIterInfo ] 1
    print[ P_OrbEn ] 0
    print[ P_Cartesian ] 0
end
*xyz 0 1
 C        0.9753580000     0.0426140000    -0.0827520000 
 C        2.4669550000    -0.0359020000    -0.0808200000 
 C        3.0705990000    -0.3862630000    -1.4025600000 
 C        3.1579040000     0.1991190000     1.0466560000 
 C        4.6075780000     0.1575870000     1.1930830000 
 O        5.1750340000     0.3797050000     2.2377440000 
 H        0.5430220000    -0.9134910000    -0.3968650000 
 H        0.6331950000     0.7894550000    -0.8072320000 
 H        0.5767460000     0.3001450000     0.8983660000 
 H        2.6796260000    -1.3502750000    -1.7442740000 
 H        4.1564570000    -0.4420310000    -1.3943640000 
 H        2.7701180000     0.3513160000    -2.1539870000 
 H        2.6235900000     0.4473580000     1.9596120000 
 H        5.1982080000    -0.0910260000     0.2891930000 
*
