! RI PBE def2-SVP def2-SVP/J NBO PAL2
% maxcore 2000
% output
    # printlevel mini
    print[ P_Basis ] 0
    print[ P_SCFInfo ] 1
    print[ P_SCFIterInfo ] 1
    print[ P_OrbEn ] 0
    print[ P_Cartesian ] 0
end
*xyz 0 1
 C        1.0488320000     0.0942720000    -0.0055260000 
 C        2.5730770000     0.0808750000    -0.0642200000 
 C        3.0503070000    -1.2298170000    -0.6849520000 
 C        3.0750570000     1.2600650000    -0.8911210000 
 C        3.0939720000     0.1976190000     1.3718650000 
 O        4.5003550000     0.2081700000     1.4875640000 
 H        0.6211150000     0.0315660000    -1.0096120000 
 H        0.6804450000     1.0153560000     0.4556720000 
 H        0.6638640000    -0.7498800000     0.5743310000 
 H        2.6362000000    -1.3563170000    -1.6886730000 
 H        2.7368770000    -2.0913980000    -0.0864940000 
 H        4.1394870000    -1.2555080000    -0.7843160000 
 H        2.7487840000     1.1737730000    -1.9312410000 
 H        4.1655660000     1.3089070000    -0.8751120000 
 H        2.6908890000     2.2049580000    -0.4963200000 
 H        2.6593640000    -0.6107400000     1.9785200000 
 H        2.7545270000     1.1447650000     1.8012680000 
 H        4.8286940000    -0.6685550000     1.2752770000 
*
