! RI PBE def2-SVP def2-SVP/J NBO PAL2
% maxcore 2000
% output
    # printlevel mini
    print[ P_Basis ] 0
    print[ P_SCFInfo ] 1
    print[ P_SCFIterInfo ] 1
    print[ P_OrbEn ] 0
    print[ P_Cartesian ] 0
end
*xyz 0 1
 C        0.9041360000    -0.0314480000     0.0350100000 
 C        2.4335130000    -0.0140020000    -0.0358300000 
 C        2.9159310000     0.3321200000    -1.4339820000 
 C        2.9810010000     0.9717470000     0.9999620000 
 C        2.9091110000    -1.3911290000     0.3722370000 
 O        3.5763800000    -2.1316000000    -0.2942050000 
 H        0.5113180000     0.9681720000    -0.1675260000 
 H        0.5524450000    -0.3330370000     1.0258610000 
 H        0.4806040000    -0.7185460000    -0.7014890000 
 H        2.5675710000     1.3279110000    -1.7194780000 
 H        2.5443400000    -0.3872200000    -2.1659740000 
 H        4.0060550000     0.3188480000    -1.4868340000 
 H        2.5937820000     1.9740760000     0.8000500000 
 H        4.0722630000     1.0163650000     0.9672540000 
 H        2.6803900000     0.6948090000     2.0145400000 
 H        2.5802710000    -1.6934550000     1.3944440000 
*
