! RI PBE def2-SVP def2-SVP/J NBO PAL2
% maxcore 2000
% output
    # printlevel mini
    print[ P_Basis ] 0
    print[ P_SCFInfo ] 1
    print[ P_SCFIterInfo ] 1
    print[ P_OrbEn ] 0
    print[ P_Cartesian ] 0
end
*xyz 0 1
 C        1.0140690000    -0.0481520000     0.0951110000 
 C        2.5284480000     0.0722080000     0.0004890000 
 C        3.0054930000    -0.2341790000    -1.4134480000 
 C        2.9905020000     1.4484790000     0.5004950000 
 C        4.4927540000     1.5598050000     0.6826420000 
 O        2.4972330000     2.5028520000    -0.3113900000 
 H        0.6738190000    -1.0289880000    -0.2464610000 
 H        0.5313620000     0.7138210000    -0.5215450000 
 H        0.6681540000     0.0879060000     1.1233100000 
 H        2.9760770000    -0.6662850000     0.6783990000 
 H        2.5644580000     0.4597860000    -2.1358930000 
 H        2.6979110000    -1.2389770000    -1.7117390000 
 H        4.0927530000    -0.1846890000    -1.5082070000 
 H        2.5139850000     1.6154320000     1.4729470000 
 H        5.0218850000     1.4542870000    -0.2695950000 
 H        4.8664530000     0.7860990000     1.3580220000 
 H        4.7473660000     2.5352110000     1.1010630000 
 H        2.9905790000     2.4992940000    -1.1364000000 
*
