! RI PBE def2-SVP def2-SVP/J NBO PAL2
% maxcore 2000
% output
    # printlevel mini
    print[ P_Basis ] 0
    print[ P_SCFInfo ] 1
    print[ P_SCFIterInfo ] 1
    print[ P_OrbEn ] 0
    print[ P_Cartesian ] 0
end
*xyz 0 1
 C        0.9923270000     0.2088940000     0.0693700000 
 C        2.4765940000    -0.1213210000     0.1514400000 
 C        2.9365910000    -0.2371940000     1.5970120000 
 C        2.7984880000    -1.4026370000    -0.6219890000 
 C        2.5664410000    -1.2595400000    -2.0954040000 
 O        1.9187370000    -2.0087030000    -2.7735280000 
 H        0.7696030000     1.1416860000     0.5927710000 
 H        0.3948620000    -0.5839480000     0.5296450000 
 H        0.6540070000     0.3163880000    -0.9644790000 
 H        3.0368280000     0.6988720000    -0.3174980000 
 H        2.4194980000    -1.0572460000     2.1044070000 
 H        2.7241030000     0.6808970000     2.1501560000 
 H        4.0106440000    -0.4289630000     1.6617440000 
 H        2.2174260000    -2.2512800000    -0.2506890000 
 H        3.8633770000    -1.6401220000    -0.4927880000 
 H        3.0582640000    -0.3709830000    -2.5556500000 
*
