! RI PBE def2-SVP def2-SVP/J NBO PAL2
% maxcore 2000
% output
    # printlevel mini
    print[ P_Basis ] 0
    print[ P_SCFInfo ] 1
    print[ P_SCFIterInfo ] 1
    print[ P_OrbEn ] 0
    print[ P_Cartesian ] 0
end
*xyz 0 1
 C        0.9236650000    -0.0665370000     0.0521950000 
 C        2.3746960000    -0.0876030000     0.0642340000 
 C        3.5769870000    -0.1067260000     0.0859080000 
 C        5.0299640000    -0.1328270000     0.0662240000 
 C        5.5891830000    -0.2328550000    -1.3525740000 
 O        6.9956800000    -0.3075800000    -1.3670860000 
 H        0.5453040000     0.4244210000    -0.8479420000 
 H        0.5324190000     0.4744100000     0.9175770000 
 H        0.5152020000    -1.0799220000     0.0778580000 
 H        5.4033300000    -0.9809090000     0.6492750000 
 H        5.4208280000     0.7735500000     0.5452340000 
 H        5.2217260000     0.6090990000    -1.9527720000 
 H        5.2292630000    -1.1502430000    -1.8216160000 
 H        7.3505620000     0.5299040000    -1.0586050000 
*
