! RI PBE def2-SVP def2-SVP/J NBO PAL2
% maxcore 2000
% output
    # printlevel mini
    print[ P_Basis ] 0
    print[ P_SCFInfo ] 1
    print[ P_SCFIterInfo ] 1
    print[ P_OrbEn ] 0
    print[ P_Cartesian ] 0
end
*xyz 0 1
 C        1.1287790000    -0.0304750000    -0.3942790000 
 C        2.5402410000    -0.1299090000    -0.0767070000 
 C        3.7133530000    -0.2097630000     0.1709830000 
 C        5.1278800000    -0.3115040000     0.5113080000 
 C        5.4778050000     0.5629930000     1.7082480000 
 O        5.8867400000     0.0475780000    -0.6343630000 
 H        0.9875910000     0.4008490000    -1.3884440000 
 H        0.6065540000     0.6058880000     0.3244780000 
 H        0.6520420000    -1.0138060000    -0.3844870000 
 H        5.3316610000    -1.3618560000     0.7713930000 
 H        5.2829330000     1.6104280000     1.4734000000 
 H        4.8851730000     0.2805460000     2.5802450000 
 H        6.5356090000     0.4485100000     1.9632700000 
 H        6.8158380000    -0.0211880000    -0.3970460000 
*
