! RI PBE def2-SVP def2-SVP/J NBO PAL2
% maxcore 2000
% output
    # printlevel mini
    print[ P_Basis ] 0
    print[ P_SCFInfo ] 1
    print[ P_SCFIterInfo ] 1
    print[ P_OrbEn ] 0
    print[ P_Cartesian ] 0
end
*xyz 0 1
 C        0.9252120000    -0.0070490000    -0.0699600000 
 C        2.3751870000     0.0251320000    -0.0916130000 
 C        3.5765030000     0.0664250000    -0.1044010000 
 C        5.0269990000     0.0755500000    -0.1564840000 
 C        5.5855730000    -1.1187110000    -0.9059520000 
 O        6.5440810000    -1.0631030000    -1.6202660000 
 H        0.5158000000     1.0026070000     0.0144860000 
 H        0.5575400000    -0.5909850000     0.7772740000 
 H        0.5295590000    -0.4539330000    -0.9852140000 
 H        5.4392920000     0.0241630000     0.8612750000 
 H        5.4201150000     0.9862920000    -0.6151910000 
 H        5.0431500000    -2.0716900000    -0.7337540000 
*
