! RI PBE def2-SVP def2-SVP/J NBO PAL2
% maxcore 2000
% output
    # printlevel mini
    print[ P_Basis ] 0
    print[ P_SCFInfo ] 1
    print[ P_SCFIterInfo ] 1
    print[ P_OrbEn ] 0
    print[ P_Cartesian ] 0
end
*xyz 0 1
 C        1.0344030000     0.2382720000     0.0869280000 
 C        2.5048120000    -0.1713740000     0.0632670000 
 C        2.7205090000    -1.5024600000    -0.5842640000 
 C        2.9857890000    -2.6357070000     0.0667180000 
 C        2.6390340000    -1.5824440000    -2.0571780000 
 O        2.4528140000    -0.6393550000    -2.7829470000 
 H        0.9177830000     1.2188400000     0.5533090000 
 H        0.4371860000    -0.4797000000     0.6540280000 
 H        0.6302190000     0.2973350000    -0.9247510000 
 H        2.9025860000    -0.1980240000     1.0810800000 
 H        3.0733880000     0.5798510000    -0.4930330000 
 H        3.0838950000    -2.6727040000     1.1460860000 
 H        3.1164600000    -3.5684130000    -0.4737530000 
 H        2.7760110000    -2.6045270000    -2.4714800000 
*
