! RI PBE def2-SVP def2-SVP/J NBO PAL2
% maxcore 2000
% output
    # printlevel mini
    print[ P_Basis ] 0
    print[ P_SCFInfo ] 1
    print[ P_SCFIterInfo ] 1
    print[ P_OrbEn ] 0
    print[ P_Cartesian ] 0
end
*xyz 0 1
 C        3.2620900000     1.1056310000     0.3055230000 
 C        2.7897520000     0.0051160000    -0.6324990000 
 C        3.2200230000    -1.4102280000    -0.2473430000 
 C        2.4609860000    -2.4515340000    -1.0560270000 
 C        4.7237860000    -1.6004360000    -0.4035850000 
 O        5.1801960000    -2.8684140000     0.0240850000 
 H        2.8531210000     2.0738700000     0.0077450000 
 H        4.3495530000     1.2048920000     0.3172440000 
 H        2.9360500000     0.9124870000     1.3317480000 
 H        3.1334810000     0.2132980000    -1.6537080000 
 H        1.6956960000     0.0254880000    -0.6789770000 
 H        2.9801310000    -1.5539710000     0.8177650000 
 H        2.6112530000    -2.2870210000    -2.1280600000 
 H        1.3873190000    -2.3992900000    -0.8589050000 
 H        2.8066770000    -3.4597440000    -0.8229970000 
 H        5.2675490000    -0.8030860000     0.1184030000 
 H        4.9889230000    -1.5338280000    -1.4638530000 
 H        5.0256140000    -2.9386280000     0.9695420000 
*
