! RI PBE def2-SVP def2-SVP/J NBO PAL2
% maxcore 2000
% output
    # printlevel mini
    print[ P_Basis ] 0
    print[ P_SCFInfo ] 1
    print[ P_SCFIterInfo ] 1
    print[ P_OrbEn ] 0
    print[ P_Cartesian ] 0
end
*xyz 0 1
 C        3.8219880000     0.4435690000    -0.6276520000 
 C        3.0387720000    -0.5479250000     0.2158590000 
 C        2.5498880000    -1.7918990000    -0.5251220000 
 C        1.7581260000    -2.6775360000     0.4287150000 
 C        3.6972550000    -2.5787580000    -1.1460950000 
 O        1.6853360000    -1.3093880000    -1.5532100000 
 H        4.0336180000     1.3490890000    -0.0544720000 
 H        3.2538780000     0.7294740000    -1.5143080000 
 H        4.7809380000     0.0358790000    -0.9556240000 
 H        2.1532920000    -0.0532590000     0.6279330000 
 H        3.6405850000    -0.8748570000     1.0701890000 
 H        1.3604050000    -3.5520150000    -0.0958880000 
 H        0.9185610000    -2.1213340000     0.8508370000 
 H        2.3842860000    -3.0386730000     1.2484200000 
 H        3.3176510000    -3.4788110000    -1.6400070000 
 H        4.2202560000    -1.9794660000    -1.8923560000 
 H        4.4164700000    -2.8969060000    -0.3870380000 
 H        1.3626860000    -2.0653950000    -2.0512900000 
*
