! RI PBE def2-SVP def2-SVP/J NBO PAL2
% maxcore 2000
% output
    # printlevel mini
    print[ P_Basis ] 0
    print[ P_SCFInfo ] 1
    print[ P_SCFIterInfo ] 1
    print[ P_OrbEn ] 0
    print[ P_Cartesian ] 0
end
*xyz 0 1
 C        0.9057010000     0.1516080000     0.0670170000 
 C        2.4234240000     0.0045770000     0.0019480000 
 C        2.9463120000    -1.0135450000     0.8915740000 
 C        3.3869360000    -1.8597380000     1.6301460000 
 C        3.8537200000    -2.8794850000     2.5287900000 
 O        5.0099470000    -3.1886510000     2.6689940000 
 H        0.5723510000     0.9295800000    -0.6220440000 
 H        0.5841930000     0.4234190000     1.0734550000 
 H        0.4125570000    -0.7826740000    -0.2051570000 
 H        2.9095080000     0.9554340000     0.2469160000 
 H        2.7396460000    -0.2378080000    -1.0186990000 
 H        3.0526050000    -3.3814170000     3.1053630000 
*
