! RI PBE def2-SVP def2-SVP/J NBO PAL2
% maxcore 2000
% output
    # printlevel mini
    print[ P_Basis ] 0
    print[ P_SCFInfo ] 1
    print[ P_SCFIterInfo ] 1
    print[ P_OrbEn ] 0
    print[ P_Cartesian ] 0
end
*xyz 0 1
 C        1.1971720000    -0.1343860000    -0.1373190000 
 C        2.7139950000    -0.0548150000    -0.1055750000 
 C        3.2380560000     0.8043520000     1.0331680000 
 C        4.7568800000     0.8543470000     1.1201810000 
 C        5.2397870000     1.8122340000     2.1928980000 
 O        5.3118400000    -0.4391610000     1.3073240000 
 H        0.8459840000    -0.7516060000    -0.9674480000 
 H        0.7487810000     0.8572240000    -0.2487310000 
 H        0.8049710000    -0.5690760000     0.7867420000 
 H        3.0810330000     0.3506580000    -1.0556330000 
 H        3.1417000000    -1.0576480000    -0.0199230000 
 H        2.8465320000     0.4309410000     1.9906510000 
 H        2.8562840000     1.8274420000     0.9306600000 
 H        5.1525010000     1.1766890000     0.1502610000 
 H        4.8547630000     1.5166190000     3.1751220000 
 H        4.8991360000     2.8318070000     1.9967050000 
 H        6.3302230000     1.8136150000     2.2396090000 
 H        5.0385610000    -0.7537250000     2.1744990000 
*
