! RI PBE def2-SVP def2-SVP/J NBO PAL2
% maxcore 2000
% output
    # printlevel mini
    print[ P_Basis ] 0
    print[ P_SCFInfo ] 1
    print[ P_SCFIterInfo ] 1
    print[ P_OrbEn ] 0
    print[ P_Cartesian ] 0
end
*xyz 0 1
 C        0.9772480000    -0.0008740000     0.1258230000 
 C        2.4957750000     0.0419950000     0.1117660000 
 C        3.0447450000     1.3811810000    -0.3544740000 
 C        4.5592570000     1.4252890000    -0.3689990000 
 C        5.1508670000     2.7251840000    -0.8214660000 
 O        4.5205650000     3.6897830000    -1.1578460000 
 H        0.6059340000    -0.9709260000     0.4636040000 
 H        0.5688400000     0.1826960000    -0.8717150000 
 H        0.5678800000     0.7626890000     0.7928820000 
 H        2.8793360000    -0.7538920000    -0.5374970000 
 H        2.8783770000    -0.1780320000     1.1154100000 
 H        2.6686620000     2.1831010000     0.2885990000 
 H        2.6695700000     1.6098160000    -1.3569860000 
 H        4.9802410000     0.6419410000    -1.0153030000 
 H        4.9793250000     1.2131650000     0.6245380000 
 H        6.2639900000     2.7515650000    -0.8301270000 
*
