! RI PBE def2-SVP def2-SVP/J NBO PAL2
% maxcore 2000
% output
    # printlevel mini
    print[ P_Basis ] 0
    print[ P_SCFInfo ] 1
    print[ P_SCFIterInfo ] 1
    print[ P_OrbEn ] 0
    print[ P_Cartesian ] 0
end
*xyz 0 1
 C        2.5405320000     0.8361490000    -1.5647570000 
 C        3.4473890000    -0.0673560000    -0.7364090000 
 C        3.2559490000     0.1037340000     0.7364580000 
 C        4.2333160000     0.5062080000     1.5457240000 
 O        4.1879950000     0.7056130000     2.8789130000 
 C        2.9550840000     0.4650650000     3.5100330000 
 H        2.6821450000     0.6660980000    -2.6350530000 
 H        2.7440280000     1.8891490000    -1.3562680000 
 H        1.4873600000     0.6518160000    -1.3353560000 
 H        4.4944280000     0.1256150000    -0.9920270000 
 H        3.2543370000    -1.1112050000    -1.0134020000 
 H        2.2655730000    -0.1043740000     1.1302550000 
 H        5.2285160000     0.7219850000     1.1683440000 
 H        3.1008440000     0.6738640000     4.5687040000 
 H        2.6419890000    -0.5775500000     3.3826500000 
 H        2.1722350000     1.1209780000     3.1123830000 
*
