! RI PBE def2-SVP def2-SVP/J NBO PAL2
% maxcore 2000
% output
    # printlevel mini
    print[ P_Basis ] 0
    print[ P_SCFInfo ] 1
    print[ P_SCFIterInfo ] 1
    print[ P_OrbEn ] 0
    print[ P_Cartesian ] 0
end
*xyz 0 1
 C        3.1579660000     0.2494560000     1.0948970000 
 C        2.3387110000     0.2005650000    -0.1823340000 
 C        2.9192100000    -0.7196880000    -1.2413160000 
 C        2.0076930000    -0.8370900000    -2.4509560000 
 O        4.1898000000    -0.2016250000    -1.5911200000 
 C        5.0355000000    -1.1148170000    -2.2306580000 
 H        2.7137800000     0.9321490000     1.8227260000 
 H        4.1747870000     0.5871180000     0.8892030000 
 H        3.2198780000    -0.7381530000     1.5614750000 
 H        2.2563940000     1.2033940000    -0.6161530000 
 H        1.3182920000    -0.1311400000     0.0353980000 
 H        3.0611250000    -1.7211150000    -0.7993030000 
 H        1.8452960000     0.1476820000    -2.8962250000 
 H        1.0385700000    -1.2494950000    -2.1604330000 
 H        2.4290600000    -1.4935650000    -3.2147360000 
 H        6.0037890000    -0.6282560000    -2.3549580000 
 H        4.6682490000    -1.4093470000    -3.2221990000 
 H        5.1728110000    -2.0246640000    -1.6290180000 
*
