! RI PBE def2-SVP def2-SVP/J NBO PAL2
% maxcore 2000
% output
    # printlevel mini
    print[ P_Basis ] 0
    print[ P_SCFInfo ] 1
    print[ P_SCFIterInfo ] 1
    print[ P_OrbEn ] 0
    print[ P_Cartesian ] 0
end
*xyz 0 1
 C        0.9991120000    -0.0464520000    -0.0104470000 
 C        2.5013490000    -0.0864130000    -0.0001940000 
 C        3.2442560000     0.1015950000    -1.0879170000 
 C        3.2455530000    -0.3459980000     1.2655350000 
 O        2.4336310000    -0.5272210000     2.3244600000 
 O        4.4434310000    -0.3962090000     1.3719440000 
 H        0.6419150000     0.9250320000    -0.3595580000 
 H        0.5821920000    -0.2222240000     0.9780480000 
 H        0.5980680000    -0.8056950000    -0.6857130000 
 H        2.7899810000     0.2966490000    -2.0529770000 
 H        4.3246220000     0.0622990000    -1.0253610000 
 H        3.0156900000    -0.6856830000     3.0803700000 
*
