! RI PBE def2-SVP def2-SVP/J NBO PAL2
% maxcore 2000
% output
    # printlevel mini
    print[ P_Basis ] 0
    print[ P_SCFInfo ] 1
    print[ P_SCFIterInfo ] 1
    print[ P_OrbEn ] 0
    print[ P_Cartesian ] 0
end
*xyz 0 1
 C        0.9733730000    -0.0422220000     0.0838310000 
 C        2.4188940000    -0.0436440000     0.0992250000 
 C        3.6211700000    -0.0464900000     0.1117060000 
 C        5.0584120000    -0.0435980000     0.0581740000 
 O        5.6068800000    -0.1455030000     1.2794290000 
 O        5.7044370000     0.0394420000    -0.9519070000 
 H        0.5922560000     0.3042530000    -0.8792410000 
 H        0.5791370000     0.6078860000     0.8683760000 
 H        0.5915910000    -1.0510890000     0.2596840000 
 H        6.5657500000    -0.1352540000     1.1461220000 
*
