! RI PBE def2-SVP def2-SVP/J NBO PAL2
% maxcore 2000
% output
    # printlevel mini
    print[ P_Basis ] 0
    print[ P_SCFInfo ] 1
    print[ P_SCFIterInfo ] 1
    print[ P_OrbEn ] 0
    print[ P_Cartesian ] 0
end
*xyz 0 1
 C       -0.2870200000     1.3999030000    -0.7245410000 
 C        0.5939110000     0.5390000000     0.1642710000 
 C        1.9272110000     0.2328180000    -0.4772530000 
 O        2.6910580000    -0.5623600000     0.3909490000 
 C        3.9512200000    -0.8926890000    -0.1349700000 
 C        4.6924340000    -1.7430600000     0.8655220000 
 H       -1.2448030000     1.6103270000    -0.2447780000 
 H       -0.4969480000     0.9056970000    -1.6772740000 
 H        0.1878030000     2.3594200000    -0.9478760000 
 H        0.0930830000    -0.4059850000     0.3956130000 
 H        0.7738620000     1.0392160000     1.1206960000 
 H        2.4634990000     1.1692050000    -0.7047070000 
 H        1.7763230000    -0.2898890000    -1.4365070000 
 H        4.5180660000     0.0254950000    -0.3565160000 
 H        3.8307300000    -1.4332790000    -1.0871810000 
 H        4.8262060000    -1.2026770000     1.8046530000 
 H        5.6774160000    -2.0137810000     0.4788680000 
 H        4.1389400000    -2.6605590000     1.0746120000 
*
