! RI PBE def2-SVP def2-SVP/J NBO PAL2
% maxcore 2000
% output
    # printlevel mini
    print[ P_Basis ] 0
    print[ P_SCFInfo ] 1
    print[ P_SCFIterInfo ] 1
    print[ P_OrbEn ] 0
    print[ P_Cartesian ] 0
end
*xyz 0 1
 C        0.9078230000     0.0263480000    -0.0274070000 
 C        2.2445490000     0.0489630000    -0.0941310000 
 C        2.9958950000     0.2205530000     1.1791490000 
 O        4.1893210000     0.2598290000     1.2772210000 
 C        2.9758340000    -0.0809480000    -1.3042540000 
 C        3.6202850000    -0.1881640000    -2.3121490000 
 H        0.4124790000     0.1312550000     0.9320520000 
 H        0.2890810000    -0.0944930000    -0.9071090000 
 H        2.3336480000     0.3128670000     2.0664510000 
 H        4.1923730000    -0.2818090000    -3.2050230000 
*
