! RI PBE def2-SVP def2-SVP/J NBO PAL2
% maxcore 2000
% output
    # printlevel mini
    print[ P_Basis ] 0
    print[ P_SCFInfo ] 1
    print[ P_SCFIterInfo ] 1
    print[ P_OrbEn ] 0
    print[ P_Cartesian ] 0
end
*xyz 0 1
 C        0.6637530000     1.2507340000    -1.2071470000 
 C        1.9889960000     0.8237740000    -0.6842550000 
 C        3.0115670000     1.6337670000    -0.4226200000 
 O        2.0245000000    -0.5334860000    -0.5319140000 
 C        2.9800280000    -1.0796250000     0.2659110000 
 C        3.4591680000    -2.2933560000     0.0498170000 
 H       -0.1306790000     0.9760040000    -0.5081870000 
 H        0.4528410000     0.7447650000    -2.1530610000 
 H        0.6401170000     2.3268350000    -1.3705420000 
 H        2.8937910000     2.6987240000    -0.5632680000 
 H        3.9762890000     1.2703590000    -0.0960890000 
 H        3.2704720000    -0.4641060000     1.1132790000 
 H        3.1551080000    -2.8768520000    -0.8098760000 
 H        4.1590570000    -2.7243360000     0.7518730000 
*
