! RI PBE def2-SVP def2-SVP/J NBO PAL2
% maxcore 2000
% output
    # printlevel mini
    print[ P_Basis ] 0
    print[ P_SCFInfo ] 1
    print[ P_SCFIterInfo ] 1
    print[ P_OrbEn ] 0
    print[ P_Cartesian ] 0
end
*xyz 0 1
 C        1.0589190000     0.0472370000     0.0618080000 
 C        2.5868400000     0.0684400000     0.0593450000 
 C        3.1157870000     1.4898620000     0.2456150000 
 O        3.0893570000    -0.7790520000     1.0877080000 
 C        3.0832550000    -0.4780400000    -1.2070950000 
 C        3.4680340000    -0.8920260000    -2.2649370000 
 H        0.6866760000     0.4558600000     1.0062660000 
 H        0.7007330000    -0.9768020000    -0.0455150000 
 H        0.6562760000     0.6495280000    -0.7542400000 
 H        2.7451110000     1.8996630000     1.1901780000 
 H        2.7840930000     2.1418450000    -0.5641410000 
 H        4.2057000000     1.4814690000     0.2678140000 
 H        2.7698520000    -0.4301840000     1.9255150000 
 H        3.8164670000    -1.2704010000    -3.1967210000 
*
