! RI PBE def2-SVP def2-SVP/J NBO PAL2
% maxcore 2000
% output
    # printlevel mini
    print[ P_Basis ] 0
    print[ P_SCFInfo ] 1
    print[ P_SCFIterInfo ] 1
    print[ P_OrbEn ] 0
    print[ P_Cartesian ] 0
end
*xyz 0 1
 C        0.5851120000    -0.3826010000     0.5323180000 
 C        1.9694040000    -0.8973870000     0.2093770000 
 C        2.1989250000    -2.3059750000     0.7218940000 
 O        2.0899550000    -0.8564940000    -1.2131450000 
 C        3.3173940000    -0.8073640000    -1.7559980000 
 C        4.5059220000    -0.7839080000    -1.1576220000 
 H        0.4253890000    -0.3789290000     1.6125030000 
 H       -0.1732760000    -1.0212380000     0.0735300000 
 H        0.4528060000     0.6336330000     0.1577420000 
 H        2.7162690000    -0.2161000000     0.6354510000 
 H        1.4278310000    -2.9755880000     0.3332920000 
 H        2.1515850000    -2.3240950000     1.8131900000 
 H        3.1729280000    -2.6885130000     0.4146240000 
 H        3.2387740000    -0.7774580000    -2.8383560000 
 H        4.6463300000    -0.8234730000    -0.0862690000 
 H        5.3904610000    -0.7216090000    -1.7759400000 
*
