! RI PBE def2-SVP def2-SVP/J NBO PAL2
% maxcore 2000
% output
    # printlevel mini
    print[ P_Basis ] 0
    print[ P_SCFInfo ] 1
    print[ P_SCFIterInfo ] 1
    print[ P_OrbEn ] 0
    print[ P_Cartesian ] 0
end
*xyz 0 1
 C        0.9432730000     0.2251130000    -0.0218100000 
 C        2.4389940000    -0.0499870000     0.0682460000 
 C        2.8758940000    -0.1627430000     1.5306210000 
 O        4.2658310000    -0.3073010000     1.6777930000 
 C        2.8143080000    -1.3029590000    -0.6573090000 
 C        3.8237460000    -1.4227310000    -1.5113550000 
 H        0.6822120000     1.1418550000     0.5126240000 
 H        0.3669090000    -0.5943570000     0.4179440000 
 H        0.6247500000     0.3358470000    -1.0600210000 
 H        2.9937980000     0.7871500000    -0.3705160000 
 H        2.3350530000    -0.9964700000     2.0061740000 
 H        2.6008310000     0.7510670000     2.0641250000 
 H        4.5493190000    -1.0004910000     1.0708080000 
 H        2.2156520000    -2.1828330000    -0.4186940000 
 H        4.4396840000    -0.5697850000    -1.7803900000 
 H        4.0591650000    -2.3692750000    -1.9846280000 
*
