! RI PBE def2-SVP def2-SVP/J NBO PAL2
% maxcore 2000
% output
    # printlevel mini
    print[ P_Basis ] 0
    print[ P_SCFInfo ] 1
    print[ P_SCFIterInfo ] 1
    print[ P_OrbEn ] 0
    print[ P_Cartesian ] 0
end
*xyz 0 1
 C        1.1550870000     0.0976490000     0.2261720000 
 C        2.6513490000    -0.0805110000     0.0784020000 
 C        3.0452970000    -1.1002780000    -0.9673260000 
 O        2.2224850000    -1.7029340000    -1.6114950000 
 C        4.5294690000    -1.3216530000    -1.1594100000 
 C        4.8625210000    -2.3517640000    -2.2178630000 
 H        0.9271470000     0.8423650000     0.9911700000 
 H        0.6760520000    -0.8419350000     0.5053230000 
 H        0.7058750000     0.4200230000    -0.7143060000 
 H        3.1117860000    -0.3841140000     1.0266490000 
 H        3.1413050000     0.8659660000    -0.1813650000 
 H        4.9511300000    -1.6004410000    -0.1858410000 
 H        4.9814430000    -0.3498790000    -1.3933360000 
 H        4.4282230000    -3.3211470000    -1.9690770000 
 H        5.9431940000    -2.4719980000    -2.3151810000 
 H        4.4589180000    -2.0586490000    -3.1881250000 
*
