! RI PBE def2-SVP def2-SVP/J NBO PAL2
% maxcore 2000
% output
    # printlevel mini
    print[ P_Basis ] 0
    print[ P_SCFInfo ] 1
    print[ P_SCFIterInfo ] 1
    print[ P_OrbEn ] 0
    print[ P_Cartesian ] 0
end
*xyz 0 1
 C        1.1527400000    -0.9083120000    -0.1720550000 
 C        2.3576160000    -0.0313550000     0.0992620000 
 C        1.9986070000     1.2932530000     0.7331840000 
 O        0.8506350000     1.5868730000     0.9838120000 
 C        3.0791410000     2.2564790000     1.0560140000 
 C        4.3747360000     2.0624280000     0.8350000000 
 H        1.4595120000    -1.8513030000    -0.6285260000 
 H        0.4504410000    -0.4118220000    -0.8430090000 
 H        0.6142360000    -1.1298210000     0.7503590000 
 H        2.9092350000     0.1742560000    -0.8254580000 
 H        3.0720150000    -0.5391820000     0.7576100000 
 H        2.7204840000     3.1766820000     1.5077720000 
 H        4.7536740000     1.1513870000     0.3852740000 
 H        5.1090380000     2.8150270000     1.0985510000 
*
