! RI PBE def2-SVP def2-SVP/J NBO PAL2
% maxcore 2000
% output
    # printlevel mini
    print[ P_Basis ] 0
    print[ P_SCFInfo ] 1
    print[ P_SCFIterInfo ] 1
    print[ P_OrbEn ] 0
    print[ P_Cartesian ] 0
end
*xyz 0 1
 C        0.9430600000    -0.1655800000    -0.0856390000 
 C        2.4352630000     0.0515510000     0.1440950000 
 C        2.9859810000     1.1845290000    -0.6809580000 
 O        3.4458550000     2.1938130000    -0.2052170000 
 C        2.9307450000     1.0010170000    -2.1248820000 
 C        2.8883300000     0.8312660000    -3.3138650000 
 H        0.5867370000    -1.0040230000     0.5149480000 
 H        0.7309180000    -0.3866980000    -1.1334350000 
 H        0.3709360000     0.7201510000     0.1980990000 
 H        2.9841770000    -0.8578150000    -0.1250580000 
 H        2.6470040000     0.2849010000     1.1888920000 
 H        2.8592930000     0.6999980000    -4.3707800000 
*
