! RI PBE def2-SVP def2-SVP/J NBO PAL2
% maxcore 2000
% output
    # printlevel mini
    print[ P_Basis ] 0
    print[ P_SCFInfo ] 1
    print[ P_SCFIterInfo ] 1
    print[ P_OrbEn ] 0
    print[ P_Cartesian ] 0
end
*xyz 0 1
 C        1.0155110000     0.0422960000     0.1189790000 
 C        2.5237370000     0.0204480000    -0.0514650000 
 C        3.0561800000     1.1569820000    -0.9232440000 
 O        4.4706070000     1.2133530000    -0.9072410000 
 C        2.5422170000     1.0779430000    -2.2913270000 
 C        2.1439370000     0.9773410000    -3.4197600000 
 H        0.6852410000    -0.7752340000     0.7626040000 
 H        0.5061940000    -0.0589930000    -0.8418390000 
 H        0.6833360000     0.9785240000     0.5763910000 
 H        2.8430500000    -0.9310320000    -0.4905640000 
 H        3.0234010000     0.1115910000     0.9169120000 
 H        2.7307860000     2.1094760000    -0.4896900000 
 H        4.8023650000     0.4890270000    -1.4461660000 
 H        1.7914190000     0.9027880000    -4.4214800000 
*
