! RI PBE def2-SVP def2-SVP/J NBO PAL2
% maxcore 2000
% output
    # printlevel mini
    print[ P_Basis ] 0
    print[ P_SCFInfo ] 1
    print[ P_SCFIterInfo ] 1
    print[ P_OrbEn ] 0
    print[ P_Cartesian ] 0
end
*xyz 0 1
 C        0.5408740000     0.1381100000    -0.9244420000 
 C        2.0566760000     0.2238480000    -0.8825840000 
 C        2.5834470000     0.1819380000     0.5315170000 
 O        3.9940870000     0.2658440000     0.4903620000 
 C        4.6416280000     0.2430830000     1.6676440000 
 C        4.1260510000     0.1505490000     2.8904000000 
 H        0.1743030000     0.1694820000    -1.9520110000 
 H        0.0785890000     0.9686770000    -0.3837640000 
 H        0.1806060000    -0.7909130000    -0.4738800000 
 H        2.3989550000     1.1480820000    -1.3576730000 
 H        2.5003940000    -0.6015390000    -1.4473180000 
 H        2.2857220000    -0.7496740000     1.0319190000 
 H        2.1832650000     1.0171660000     1.1224410000 
 H        5.7124400000     0.3134550000     1.5059420000 
 H        3.0660010000     0.0788420000     3.0901950000 
 H        4.7990520000     0.1462400000     3.7363520000 
*
