! RI PBE def2-SVP def2-SVP/J NBO PAL2
% maxcore 2000
% output
    # printlevel mini
    print[ P_Basis ] 0
    print[ P_SCFInfo ] 1
    print[ P_SCFIterInfo ] 1
    print[ P_OrbEn ] 0
    print[ P_Cartesian ] 0
end
*xyz 0 1
 C        0.9918980000    -0.9340520000     0.7946790000 
 C        1.8373310000     0.0497410000     0.5290760000 
 C        2.4749730000     0.2484980000    -0.8030620000 
 O        3.9113980000     0.2512720000    -0.6904790000 
 C        4.5231700000    -0.9207080000    -0.8589030000 
 O        4.0029890000    -1.9634080000    -1.1253390000 
 H        0.5270110000    -1.0350950000     1.7684580000 
 H        0.7382460000    -1.6766350000     0.0451530000 
 H        2.0946760000     0.7765720000     1.2956120000 
 H        2.2340200000     1.2322750000    -1.2110500000 
 H        2.1661270000    -0.5252460000    -1.5066000000 
 H        5.6055510000    -0.7787150000    -0.7225450000 
*
