! RI PBE def2-SVP def2-SVP/J NBO PAL2
% maxcore 2000
% output
    # printlevel mini
    print[ P_Basis ] 0
    print[ P_SCFInfo ] 1
    print[ P_SCFIterInfo ] 1
    print[ P_OrbEn ] 0
    print[ P_Cartesian ] 0
end
*xyz 0 1
 C        1.1475310000     0.0800750000    -0.2305390000 
 C        2.5993000000    -0.0381780000     0.1771500000 
 C        3.0243580000     0.9724590000     1.2233860000 
 O        4.1661010000     1.1745720000     1.5270720000 
 C        2.9633320000    -1.4193090000     0.6982490000 
 O        2.1990080000    -2.3396920000     0.7297010000 
 H        0.9389330000     1.0663640000    -0.6496990000 
 H        0.4890760000    -0.0780110000     0.6261370000 
 H        0.8938770000    -0.6742210000    -0.9749990000 
 H        3.2809780000     0.1232390000    -0.6697220000 
 H        2.1906120000     1.5108650000     1.7235430000 
 H        4.0089720000    -1.5122620000     1.0528110000 
*
