! RI PBE def2-SVP def2-SVP/J NBO PAL2
% maxcore 2000
% output
    # printlevel mini
    print[ P_Basis ] 0
    print[ P_SCFInfo ] 1
    print[ P_SCFIterInfo ] 1
    print[ P_OrbEn ] 0
    print[ P_Cartesian ] 0
end
*xyz 0 1
 C        1.0943830000    -0.0338420000    -0.0269630000 
 C        2.6013450000     0.1408110000    -0.1144570000 
 C        2.9943370000     1.6087260000    -0.1128080000 
 O        3.2385100000    -0.5377850000     0.9726390000 
 C        3.1410800000    -0.5745160000    -1.3501620000 
 O        4.5427830000    -0.5443090000    -1.4167510000 
 H        0.7004810000     0.4602370000     0.8655900000 
 H        0.8371770000    -1.0934020000     0.0283290000 
 H        0.5957550000     0.4024700000    -0.8963910000 
 H        2.6914640000     2.0866530000     0.8245060000 
 H        2.5047420000     2.1445210000    -0.9292070000 
 H        4.0735290000     1.7129880000    -0.2305810000 
 H        3.1248230000    -0.0147940000     1.7702960000 
 H        2.7623010000    -0.0890110000    -2.2527990000 
 H        2.7680660000    -1.6087210000    -1.3380700000 
 H        4.8539160000    -0.8407370000    -0.5539710000 
*
