! RI PBE def2-SVP def2-SVP/J NBO PAL2
% maxcore 2000
% output
    # printlevel mini
    print[ P_Basis ] 0
    print[ P_SCFInfo ] 1
    print[ P_SCFIterInfo ] 1
    print[ P_OrbEn ] 0
    print[ P_Cartesian ] 0
end
*xyz 0 1
 C        0.9221400000    -0.0612030000     0.0074860000 
 C        2.4353550000     0.0149380000     0.1286180000 
 C        2.9487510000     1.4378160000     0.0590650000 
 O        2.7598640000    -0.6060200000     1.3661640000 
 C        3.0254790000    -0.8485060000    -0.9800470000 
 O        3.5630320000    -0.4392280000    -1.9700470000 
 H        0.4690930000     0.4712050000     0.8461210000 
 H        0.5857000000    -1.0997310000     0.0425980000 
 H        0.5846250000     0.3897450000    -0.9270350000 
 H        2.4895770000     2.0367850000     0.8472820000 
 H        2.7223180000     1.8829500000    -0.9102160000 
 H        4.0351660000     1.4659060000     0.1810350000 
 H        3.6899790000    -0.4462180000     1.5520560000 
 H        2.9155220000    -1.9381190000    -0.7825610000 
*
