! RI PBE def2-SVP def2-SVP/J NBO PAL2
% maxcore 2000
% output
    # printlevel mini
    print[ P_Basis ] 0
    print[ P_SCFInfo ] 1
    print[ P_SCFIterInfo ] 1
    print[ P_OrbEn ] 0
    print[ P_Cartesian ] 0
end
*xyz 0 1
 C        0.7771890000    -0.1546940000     0.5113360000 
 C        2.2361690000     0.0480560000     0.1669750000 
 C        3.1118340000    -1.1177060000     0.5583130000 
 O        2.3766470000     0.1961370000    -1.2673340000 
 C        2.1782100000     1.4074930000    -1.7740890000 
 O        1.8933080000     2.3985660000    -1.1651870000 
 H        0.6638610000    -0.2792080000     1.5905430000 
 H        0.3889860000    -1.0501470000     0.0197850000 
 H        0.1824600000     0.7062130000     0.2041980000 
 H        2.5968770000     0.9723760000     0.6247380000 
 H        2.7765630000    -2.0346570000     0.0682750000 
 H        3.0670990000    -1.2693920000     1.6386800000 
 H        4.1510630000    -0.9363950000     0.2792790000 
 H        2.3219320000     1.3692490000    -2.8645100000 
*
