! RI PBE def2-SVP def2-SVP/J NBO PAL2
% maxcore 2000
% output
    # printlevel mini
    print[ P_Basis ] 0
    print[ P_SCFInfo ] 1
    print[ P_SCFIterInfo ] 1
    print[ P_OrbEn ] 0
    print[ P_Cartesian ] 0
end
*xyz 0 1
 C        1.0391610000    -0.0557890000    -0.3335130000 
 C        2.4933530000    -0.2384870000     0.0496690000 
 C        2.7073980000    -0.5075890000     1.5130280000 
 O        1.8032980000    -0.5709100000     2.3134230000 
 C        4.1264970000    -0.7073350000     1.9975380000 
 O        4.1680480000    -0.9450690000     3.3651320000 
 H        0.9452350000     0.1356560000    -1.4037090000 
 H        0.5948480000     0.7811620000     0.2067890000 
 H        0.4561700000    -0.9449240000    -0.0898040000 
 H        3.0890180000     0.6442540000    -0.2129660000 
 H        2.9520710000    -1.0644450000    -0.5074360000 
 H        4.7097650000     0.1870890000     1.7322530000 
 H        4.5671980000    -1.5443440000     1.4355790000 
 H        3.2421500000    -0.9190490000     3.6550150000 
*
