! RI PBE def2-SVP def2-SVP/J NBO PAL2
% maxcore 2000
% output
    # printlevel mini
    print[ P_Basis ] 0
    print[ P_SCFInfo ] 1
    print[ P_SCFIterInfo ] 1
    print[ P_OrbEn ] 0
    print[ P_Cartesian ] 0
end
*xyz 0 1
 C        1.1429970000     0.1334870000    -0.1650560000 
 C        2.6602370000     0.0775510000    -0.2169090000 
 C        3.2060760000    -1.3193470000    -0.4464670000 
 O        2.7793030000    -1.8684000000    -1.6901540000 
 C        4.7210430000    -1.3775900000    -0.3733670000 
 O        5.1977370000    -2.6754790000    -0.6163670000 
 H        0.7889510000     1.1591590000    -0.0429140000 
 H        0.7590660000    -0.4543170000     0.6727780000 
 H        0.7032840000    -0.2709970000    -1.0786430000 
 H        3.0826980000     0.4648030000     0.7167110000 
 H        3.0354100000     0.7354640000    -1.0126890000 
 H        2.7992100000    -2.0048640000     0.3051430000 
 H        2.9779850000    -1.2265760000    -2.3802820000 
 H        5.0635460000    -1.0816030000     0.6220420000 
 H        5.1431510000    -0.6578750000    -1.0961330000 
 H        4.6547060000    -3.0277980000    -1.3314850000 
*
