! RI PBE def2-SVP def2-SVP/J NBO PAL2
% maxcore 2000
% output
    # printlevel mini
    print[ P_Basis ] 0
    print[ P_SCFInfo ] 1
    print[ P_SCFIterInfo ] 1
    print[ P_OrbEn ] 0
    print[ P_Cartesian ] 0
end
*xyz 0 1
 C        1.1378480000    -1.3463960000     0.2163700000 
 C        2.4204090000    -0.5376050000     0.1147550000 
 C        2.1299250000     0.9333840000    -0.0844730000 
 O        3.3365760000     1.6932400000    -0.2584270000 
 C        3.9326690000     2.1262460000     0.8483320000 
 O        3.5598760000     1.9503080000     1.9719740000 
 H        1.3548310000    -2.4070640000     0.3541360000 
 H        0.5304870000    -1.2475690000    -0.6876810000 
 H        0.5291960000    -1.0206320000     1.0638900000 
 H        3.0289100000    -0.8944370000    -0.7218320000 
 H        3.0157550000    -0.6604130000     1.0235150000 
 H        1.5731680000     1.3397350000     0.7625110000 
 H        1.5618980000     1.1007710000    -1.0012500000 
 H        4.8375510000     2.6878420000     0.5726790000 
*
