! RI PBE def2-SVP def2-SVP/J NBO PAL2
% maxcore 2000
% output
    # printlevel mini
    print[ P_Basis ] 0
    print[ P_SCFInfo ] 1
    print[ P_SCFIterInfo ] 1
    print[ P_OrbEn ] 0
    print[ P_Cartesian ] 0
end
*xyz 0 1
 C        0.8158680000    -0.2849290000     0.2750020000 
 C        2.2979280000    -0.0277630000     0.1002160000 
 C        2.5896950000     1.1939120000    -0.7274850000 
 O        1.7684650000     1.9202270000    -1.2189060000 
 O        3.9114580000     1.3835910000    -0.8568060000 
 C        4.2914240000     2.5191890000    -1.6262200000 
 H        0.6520460000    -1.1782910000     0.8803410000 
 H        0.3263090000    -0.4278250000    -0.6893000000 
 H        0.3268530000     0.5578390000     0.7654810000 
 H        2.8009540000    -0.8745070000    -0.3775690000 
 H        2.8014810000     0.1017690000     1.0635210000 
 H        5.3793040000     2.5252390000    -1.6314420000 
 H        3.9078310000     3.4359570000    -1.1759500000 
 H        3.9062940000     2.4417720000    -2.6440730000 
*
