! RI PBE def2-SVP def2-SVP/J NBO PAL2
% maxcore 2000
% output
    # printlevel mini
    print[ P_Basis ] 0
    print[ P_SCFInfo ] 1
    print[ P_SCFIterInfo ] 1
    print[ P_OrbEn ] 0
    print[ P_Cartesian ] 0
end
*xyz 0 1
 C        1.6302040000     1.1972810000     0.0706840000 
 C        2.8579130000     0.4499350000    -0.3836970000 
 O        3.7322070000     0.3064890000     0.7152600000 
 C        4.8980340000    -0.3667700000     0.3898540000 
 C        5.5742060000    -1.0941700000     1.4909860000 
 C        4.9002510000    -1.8648530000     0.3855950000 
 H        0.9363910000     1.3291580000    -0.7624540000 
 H        1.9000060000     2.1826740000     0.4553360000 
 H        1.1173270000     0.6493170000     0.8635940000 
 H        3.3649590000     0.9962530000    -1.1932390000 
 H        2.5900380000    -0.5404130000    -0.7783760000 
 H        5.5190210000     0.1403850000    -0.3484170000 
 H        5.0763450000    -1.0767760000     2.4521290000 
 H        6.6558090000    -1.0765050000     1.5340460000 
 H        3.9648470000    -2.3522900000     0.6315160000 
 H        5.5133420000    -2.3864170000    -0.3390170000 
*
