! RI PBE def2-SVP def2-SVP/J NBO PAL2
% maxcore 2000
% output
    # printlevel mini
    print[ P_Basis ] 0
    print[ P_SCFInfo ] 1
    print[ P_SCFIterInfo ] 1
    print[ P_OrbEn ] 0
    print[ P_Cartesian ] 0
end
*xyz 0 1
 C        1.3624590000     0.1085960000     0.0009090000 
 C        2.6575440000     0.1392120000     0.2795580000 
 O        3.5528350000     0.7997130000    -0.4931530000 
 C        4.8392260000     0.8945360000     0.0403140000 
 C        5.7492320000    -0.2876990000    -0.0545090000 
 C        5.9509680000     0.9133910000    -0.9394700000 
 H        0.6933990000    -0.4514560000     0.6383080000 
 H        0.9552730000     0.6277040000    -0.8575450000 
 H        3.0815080000    -0.3772660000     1.1380670000 
 H        4.9061890000     1.5335780000     0.9171560000 
 H        5.3440550000    -1.1772950000    -0.5203180000 
 H        6.4479390000    -0.4683190000     0.7527550000 
 H        5.6720020000     0.8091420000    -1.9801600000 
 H        6.7904900000     1.5700640000    -0.7513110000 
*
