! RI PBE def2-SVP def2-SVP/J NBO PAL2
% maxcore 2000
% output
    # printlevel mini
    print[ P_Basis ] 0
    print[ P_SCFInfo ] 1
    print[ P_SCFIterInfo ] 1
    print[ P_OrbEn ] 0
    print[ P_Cartesian ] 0
end
*xyz 0 1
 C        1.6102660000    -0.1890410000     1.1772400000 
 C        1.6375210000     0.6515280000    -0.0695520000 
 O        0.7441230000     0.6186300000    -0.8847670000 
 C        2.8235660000     1.5275100000    -0.2479280000 
 C        3.3021820000     1.7624940000    -1.6619650000 
 C        2.6061170000     2.8514280000    -0.9433980000 
 H        0.7024900000    -0.7885890000     1.2075020000 
 H        1.6624680000     0.4531490000     2.0614850000 
 H        2.4885150000    -0.8408330000     1.2072250000 
 H        3.5739260000     1.4921470000     0.5326420000 
 H        2.7469230000     1.2408730000    -2.4313970000 
 H        4.3717890000     1.8329710000    -1.8121940000 
 H        1.5833200000     3.0614160000    -1.2300780000 
 H        3.1821130000     3.6943170000    -0.5837180000 
*
