! RI PBE def2-SVP def2-SVP/J NBO PAL2
% maxcore 2000
% output
    # printlevel mini
    print[ P_Basis ] 0
    print[ P_SCFInfo ] 1
    print[ P_SCFIterInfo ] 1
    print[ P_OrbEn ] 0
    print[ P_Cartesian ] 0
end
*xyz 0 1
 C        0.9827260000    -0.0573420000     0.1494670000 
 C        2.4531680000     0.0010580000    -0.1508370000 
 O        3.1840740000     0.8473850000     0.2935900000 
 C        2.9683210000    -1.0669410000    -1.0763070000 
 C        3.9046830000    -0.6750710000    -2.1394550000 
 O        4.3451350000    -1.3648780000    -0.9977060000 
 H        0.6816410000     0.8204080000     0.7176240000 
 H        0.7617330000    -0.9616620000     0.7251990000 
 H        0.4037280000    -0.1227270000    -0.7766210000 
 H        2.3195070000    -1.9245700000    -1.2450250000 
 H        4.2067360000     0.3676360000    -2.1919890000 
 H        3.9110470000    -1.2396150000    -3.0686400000 
*
