! RI PBE def2-SVP def2-SVP/J NBO PAL2
% maxcore 2000
% output
    # printlevel mini
    print[ P_Basis ] 0
    print[ P_SCFInfo ] 1
    print[ P_SCFIterInfo ] 1
    print[ P_OrbEn ] 0
    print[ P_Cartesian ] 0
end
*xyz 0 1
 C        3.1459590000    -1.0939170000    -0.7160490000 
 C        2.4807420000    -0.0876700000    -0.1572660000 
 O        2.9779260000     0.9811070000     0.4948720000 
 C        4.3860830000     1.0379760000     0.5967920000 
 C        4.7755290000     2.2345960000     1.3183620000 
 C        5.1327200000     3.2134240000     1.9107690000 
 H        2.5826100000    -1.8770850000    -1.2036660000 
 H        4.2237530000    -1.1808800000    -0.7145460000 
 H        1.3977720000    -0.0339530000    -0.1784040000 
 H        4.8337980000     1.0436470000    -0.4060210000 
 H        4.7595170000     0.1475500000     1.1200630000 
 H        5.4418000000     4.0852060000     2.4375850000 
*
