! RI PBE def2-SVP def2-SVP/J NBO PAL2
% maxcore 2000
% output
    # printlevel mini
    print[ P_Basis ] 0
    print[ P_SCFInfo ] 1
    print[ P_SCFIterInfo ] 1
    print[ P_OrbEn ] 0
    print[ P_Cartesian ] 0
end
*xyz 0 1
 C        2.7670910000    -1.8311300000     0.0592050000 
 C        2.9857390000    -0.4200240000    -0.4084760000 
 O        2.8707520000    -0.0939340000    -1.5625020000 
 C        3.3983400000     0.5901350000     0.6539850000 
 C        4.8916990000     0.6300790000     0.7539480000 
 C        5.5893630000     0.3011930000     1.8320270000 
 H        2.6413970000    -2.4971280000    -0.7924030000 
 H        1.8706450000    -1.8685800000     0.6862780000 
 H        3.6044380000    -2.1599910000     0.6802850000 
 H        2.9648500000     0.3309910000     1.6233460000 
 H        3.0178380000     1.5642750000     0.3351760000 
 H        5.4107070000     0.9427000000    -0.1491850000 
 H        5.1041620000    -0.0132830000     2.7510780000 
 H        6.6721990000     0.3450170000     1.8377580000 
*
