! RI PBE def2-SVP def2-SVP/J NBO PAL2
% maxcore 2000
% output
    # printlevel mini
    print[ P_Basis ] 0
    print[ P_SCFInfo ] 1
    print[ P_SCFIterInfo ] 1
    print[ P_OrbEn ] 0
    print[ P_Cartesian ] 0
end
*xyz 0 1
 C        0.9382300000    -0.4472480000    -0.1332710000 
 C        2.3933840000    -0.0105000000    -0.1319350000 
 O        2.8930380000     0.1208220000    -1.4464870000 
 C        2.6450060000     1.2734600000     0.6735020000 
 C        1.9439920000     2.4599430000     0.0988160000 
 C        2.5358460000     3.3971420000    -0.6330270000 
 H        0.8317120000    -1.3750620000    -0.6975430000 
 H        0.2988440000     0.3050460000    -0.6029300000 
 H        0.5749880000    -0.6173190000     0.8840220000 
 H        2.9964150000    -0.8037820000     0.3209760000 
 H        2.5461750000     0.9456920000    -1.8061380000 
 H        3.7232880000     1.4539830000     0.6849220000 
 H        2.3236620000     1.1078550000     1.7073230000 
 H        0.8720580000     2.5320960000     0.2705990000 
 H        3.6052530000     3.3730380000    -0.8210930000 
 H        1.9800280000     4.2285350000    -1.0515370000 
*
