! RI PBE def2-SVP def2-SVP/J NBO PAL2
% maxcore 2000
% output
    # printlevel mini
    print[ P_Basis ] 0
    print[ P_SCFInfo ] 1
    print[ P_SCFIterInfo ] 1
    print[ P_OrbEn ] 0
    print[ P_Cartesian ] 0
end
*xyz 0 1
 C        1.2281640000     0.5010430000     0.5212570000 
 C        2.5239120000    -0.2338300000     0.2968780000 
 O        3.3682980000     0.5854960000    -0.4848160000 
 C        4.5860670000     0.0947320000    -0.7935370000 
 C        5.1163320000    -1.0794690000    -0.4578190000 
 C        6.4896520000    -1.4868190000    -0.8774860000 
 H        0.5520410000    -0.1085320000     1.1244110000 
 H        0.7384910000     0.7214480000    -0.4291100000 
 H        1.4028470000     1.4428660000     1.0447160000 
 H        2.3532410000    -1.1852840000    -0.2242360000 
 H        3.0179730000    -0.4634700000     1.2503580000 
 H        5.1382620000     0.8122770000    -1.3936710000 
 H        4.5512500000    -1.7848340000     0.1421740000 
 H        6.9692710000    -0.7080200000    -1.4749430000 
 H        6.4727520000    -2.4027330000    -1.4770840000 
 H        7.1323470000    -1.6864510000    -0.0138930000 
*
