! RI PBE def2-SVP def2-SVP/J NBO PAL2
% maxcore 2000
% output
    # printlevel mini
    print[ P_Basis ] 0
    print[ P_SCFInfo ] 1
    print[ P_SCFIterInfo ] 1
    print[ P_OrbEn ] 0
    print[ P_Cartesian ] 0
end
*xyz 0 1
 C        1.0068890000    -0.4667500000    -0.7446500000 
 C        2.4874230000    -0.4113440000    -0.4603270000 
 O        3.0557120000     0.6086650000    -1.2428160000 
 C        4.4215180000     0.8725800000    -0.9817460000 
 C        5.3300500000    -0.2150430000    -1.5317270000 
 C        4.7262470000     2.2221290000    -1.5945600000 
 H        0.5343900000    -1.2516480000    -0.1497530000 
 H        0.8273290000    -0.6791260000    -1.8004130000 
 H        0.5324130000     0.4861210000    -0.5024010000 
 H        2.9485170000    -1.3836890000    -0.6845040000 
 H        2.6669210000    -0.2061460000     0.6069570000 
 H        4.5617750000     0.9344780000     0.1101930000 
 H        5.1946030000    -0.3050840000    -2.6126730000 
 H        5.1273540000    -1.1865140000    -1.0769470000 
 H        6.3765220000     0.0294550000    -1.3346220000 
 H        4.5716660000     2.1871120000    -2.6758510000 
 H        5.7625590000     2.5084340000    -1.4031720000 
 H        4.0691110000     2.9882700000    -1.1799880000 
*
