! RI PBE def2-SVP def2-SVP/J NBO PAL2
% maxcore 2000
% output
    # printlevel mini
    print[ P_Basis ] 0
    print[ P_SCFInfo ] 1
    print[ P_SCFIterInfo ] 1
    print[ P_OrbEn ] 0
    print[ P_Cartesian ] 0
end
*xyz 0 1
 C        1.9107550000     0.3297100000    -0.4442180000 
 C        3.3154810000    -0.2086950000    -0.3606580000 
 O        4.0465090000     0.6024210000     0.5364390000 
 C        5.3434080000     0.2885880000     0.7570180000 
 C        5.9484370000     1.2473770000     1.7244460000 
 C        5.9991860000    -0.7293360000     0.1964440000 
 H        1.3187440000    -0.2777360000    -1.1320250000 
 H        1.9109540000     1.3593480000    -0.8067960000 
 H        1.4288690000     0.3097950000     0.5350720000 
 H        3.8020850000    -0.1959770000    -1.3442570000 
 H        3.3198180000    -1.2458830000    -0.0020070000 
 H        5.8821210000     2.2676490000     1.3373130000 
 H        6.9936090000     1.0061640000     1.9112830000 
 H        5.4027510000     1.2239530000     2.6714960000 
 H        5.5444070000    -1.4153220000    -0.5036100000 
 H        7.0386760000    -0.8871450000     0.4465710000 
*
