! RI PBE def2-SVP def2-SVP/J NBO PAL2
% maxcore 2000
% output
    # printlevel mini
    print[ P_Basis ] 0
    print[ P_SCFInfo ] 1
    print[ P_SCFIterInfo ] 1
    print[ P_OrbEn ] 0
    print[ P_Cartesian ] 0
end
*xyz 0 1
 C        0.7451470000    -0.0999880000    -0.9620310000 
 C        2.1170490000    -0.1136930000    -0.3395500000 
 O        1.9809670000    -0.3052810000     1.0496260000 
 C        3.2248070000    -0.3293570000     1.6987600000 
 C        3.0489190000    -0.5272840000     3.1275970000 
 C        2.9339390000    -0.6894460000     4.3100960000 
 H        0.8213870000     0.0475050000    -2.0414630000 
 H        0.1415990000     0.7077510000    -0.5441070000 
 H        0.2298800000    -1.0443040000    -0.7772660000 
 H        2.6426150000     0.8338050000    -0.5366730000 
 H        2.7309260000    -0.9203670000    -0.7699780000 
 H        3.7687500000     0.6135380000     1.5287860000 
 H        3.8558640000    -1.1381110000     1.2968880000 
 H        2.8238510000    -0.8337660000     5.3588140000 
*
