! RI PBE def2-SVP def2-SVP/J NBO PAL2
% maxcore 2000
% output
    # printlevel mini
    print[ P_Basis ] 0
    print[ P_SCFInfo ] 1
    print[ P_SCFIterInfo ] 1
    print[ P_OrbEn ] 0
    print[ P_Cartesian ] 0
end
*xyz 0 1
 C        2.8568290000     1.4775070000     1.0513500000 
 C        2.4860950000     0.5678570000     0.1569790000 
 O        3.2077090000    -0.4683610000    -0.3159970000 
 C        4.5086890000    -0.6157970000     0.1883010000 
 C        5.1333990000    -1.8211130000    -0.4640570000 
 O        6.2475560000    -2.1866860000    -0.2219500000 
 H        2.1527220000     2.2506150000     1.3249630000 
 H        3.8280920000     1.4923770000     1.5266040000 
 H        1.5045130000     0.5781030000    -0.3035060000 
 H        4.5030740000    -0.7607770000     1.2770420000 
 H        5.1250380000     0.2675410000    -0.0265340000 
 H        4.4794840000    -2.3479660000    -1.1901830000 
*
