! RI PBE def2-SVP def2-SVP/J NBO PAL2
% maxcore 2000
% output
    # printlevel mini
    print[ P_Basis ] 0
    print[ P_SCFInfo ] 1
    print[ P_SCFIterInfo ] 1
    print[ P_OrbEn ] 0
    print[ P_Cartesian ] 0
end
*xyz 0 1
 C        0.9732380000    -0.0562650000     0.4052520000 
 C        2.2007440000     0.0061650000    -0.4443070000 
 O        2.8317450000    -0.9563860000    -0.8002410000 
 C        2.6625940000     1.4149780000    -0.8772280000 
 C        3.8909500000     1.4775080000    -1.7255500000 
 O        2.0323440000     2.3776180000    -0.5202020000 
 H        0.7446770000    -1.0920800000     0.6470320000 
 H        0.1349950000     0.4111340000    -0.1174260000 
 H        1.1215990000     0.5282040000     1.3166730000 
 H        3.7430540000     0.8939570000    -2.6376310000 
 H        4.7284810000     1.0091610000    -1.2025720000 
 H        4.1202890000     2.5134150000    -1.9661980000 
*
