! RI PBE def2-SVP def2-SVP/J NBO PAL2
% maxcore 2000
% output
    # printlevel mini
    print[ P_Basis ] 0
    print[ P_SCFInfo ] 1
    print[ P_SCFIterInfo ] 1
    print[ P_OrbEn ] 0
    print[ P_Cartesian ] 0
end
*xyz 0 1
 C        0.9037060000     0.1691530000     0.3530690000 
 C        2.4015680000     0.1165350000     0.3107500000 
 O        3.1025480000     0.7138000000     1.0876750000 
 C        3.0265580000    -0.7652870000    -0.7589310000 
 C        3.8675700000    -1.8450850000    -0.1199720000 
 O        3.7960620000    -3.0038300000    -0.4151930000 
 H        0.5710460000     0.8098500000     1.1674720000 
 H        0.5014460000    -0.8407070000     0.4793360000 
 H        0.5172490000     0.5430150000    -0.5997910000 
 H        3.7099370000    -0.1259370000    -1.3299860000 
 H        2.3011250000    -1.2184090000    -1.4339870000 
 H        4.5649660000    -1.4821070000     0.6605660000 
*
