! RI PBE def2-SVP def2-SVP/J NBO PAL2
% maxcore 2000
% output
    # printlevel mini
    print[ P_Basis ] 0
    print[ P_SCFInfo ] 1
    print[ P_SCFIterInfo ] 1
    print[ P_OrbEn ] 0
    print[ P_Cartesian ] 0
end
*xyz 0 1
 C        0.9756460000     0.3410390000    -0.0622670000 
 C        2.4526100000     0.0069400000    -0.0378200000 
 O        2.9885070000     0.1887570000     1.2756430000 
 C        2.7496280000    -1.3867890000    -0.5727910000 
 C        4.2324170000    -1.7151870000    -0.6406550000 
 O        4.8394130000    -1.8252820000     0.6243040000 
 H        0.8025200000     1.3404790000     0.3408610000 
 H        0.4074150000    -0.3776950000     0.5380930000 
 H        0.5817570000     0.3048470000    -1.0804250000 
 H        2.9968280000     0.7375380000    -0.6466130000 
 H        2.4453010000    -0.3175970000     1.8884320000 
 H        2.3227580000    -1.4698670000    -1.5789070000 
 H        2.2414140000    -2.1332330000     0.0512170000 
 H        4.7418880000    -0.9563820000    -1.2565220000 
 H        4.3747310000    -2.6777360000    -1.1388770000 
 H        4.5733770000    -1.0405200000     1.1205280000 
*
