! RI PBE def2-SVP def2-SVP/J NBO PAL2
% maxcore 2000
% output
    # printlevel mini
    print[ P_Basis ] 0
    print[ P_SCFInfo ] 1
    print[ P_SCFIterInfo ] 1
    print[ P_OrbEn ] 0
    print[ P_Cartesian ] 0
end
*xyz 0 1
 C        0.9220940000     0.1207430000     0.0045780000 
 C        2.4172340000    -0.1171360000     0.0689990000 
 O        2.8395410000    -0.4366770000     1.3827660000 
 C        2.8636340000    -1.1874830000    -0.9282620000 
 C        4.3560090000    -1.3458020000    -0.9856790000 
 O        4.9848480000    -1.4194880000    -2.0069480000 
 H        0.6294860000     0.8797870000     0.7321410000 
 H        0.3748950000    -0.8018750000     0.2272390000 
 H        0.6170300000     0.4559860000    -0.9891230000 
 H        2.9358720000     0.8188800000    -0.1636940000 
 H        2.2958040000    -1.1617840000     1.7057600000 
 H        2.4970530000    -0.9772370000    -1.9355860000 
 H        2.4374950000    -2.1507780000    -0.6126080000 
 H        4.8637050000    -1.3891440000    -0.0005730000 
*
