! RI PBE def2-SVP def2-SVP/J NBO PAL2
% maxcore 2000
% output
    # printlevel mini
    print[ P_Basis ] 0
    print[ P_SCFInfo ] 1
    print[ P_SCFIterInfo ] 1
    print[ P_OrbEn ] 0
    print[ P_Cartesian ] 0
end
*xyz 0 1
 C        0.7966400000    -0.2779950000     0.1127160000 
 C        2.2986750000    -0.1625190000     0.0945800000 
 O        2.6560910000     1.0314200000    -0.5640040000 
 C        4.0351470000     1.2273650000    -0.6306950000 
 C        4.3098350000     2.5228580000    -1.3487310000 
 O        5.4133620000     2.9443850000    -1.5494290000 
 H        0.4951420000    -1.1973790000     0.6188590000 
 H        0.3996770000    -0.2973790000    -0.9039090000 
 H        0.3517550000     0.5681140000     0.6396480000 
 H        2.7490860000    -1.0216280000    -0.4253200000 
 H        2.7011610000    -0.1554970000     1.1188780000 
 H        4.5431760000     0.4150870000    -1.1747170000 
 H        4.4949150000     1.2807820000     0.3690900000 
 H        3.3991380000     3.0641660000    -1.6820560000 
*
