! RI PBE def2-SVP def2-SVP/J NBO PAL2
% maxcore 2000
% output
    # printlevel mini
    print[ P_Basis ] 0
    print[ P_SCFInfo ] 1
    print[ P_SCFIterInfo ] 1
    print[ P_OrbEn ] 0
    print[ P_Cartesian ] 0
end
*xyz 0 1
 C        0.5140100000     0.2546060000    -0.1496580000 
 C        1.9162540000    -0.1229540000     0.2035720000 
 O        2.8164470000     0.6340000000     0.4246980000 
 O        2.0417630000    -1.4761330000     0.2427170000 
 C        3.2715330000    -1.9990610000     0.5537420000 
 C        3.4455530000    -3.3074340000     0.6036290000 
 H        0.4258190000     1.3374100000    -0.1785290000 
 H       -0.1776200000    -0.1600580000     0.5863010000 
 H        0.2490910000    -0.1708620000    -1.1195590000 
 H        4.0401970000    -1.2607380000     0.7431300000 
 H        2.6366040000    -3.9987490000     0.4038600000 
 H        4.4202400000    -3.7044270000     0.8501880000 
*
