! RI PBE def2-SVP def2-SVP/J NBO PAL2
% maxcore 2000
% output
    # printlevel mini
    print[ P_Basis ] 0
    print[ P_SCFInfo ] 1
    print[ P_SCFIterInfo ] 1
    print[ P_OrbEn ] 0
    print[ P_Cartesian ] 0
end
*xyz 0 1
 C        2.5134630000     1.1402590000    -0.0644910000 
 O        2.2357160000    -0.2356890000    -0.0039450000 
 C        2.8099770000    -0.8421290000     1.1019470000 
 C        3.1124090000    -2.2913750000     0.9827190000 
 C        4.2387180000    -1.2907660000     1.0478100000 
 C        5.1212410000    -1.2118110000     2.2599170000 
 H        2.0250190000     1.5320970000    -0.9569600000 
 H        3.5922200000     1.3307610000    -0.1314610000 
 H        2.1213390000     1.6680690000     0.8154340000 
 H        2.4403080000    -0.4714860000     2.0596110000 
 H        2.9011610000    -2.7481330000     0.0240260000 
 H        2.9350940000    -2.9254050000     1.8436340000 
 H        4.7261330000    -1.1038250000     0.0955450000 
 H        4.5412200000    -1.3619180000     3.1746210000 
 H        5.6127660000    -0.2378400000     2.3351520000 
 H        5.8996160000    -1.9797200000     2.2373420000 
*
