! RI PBE def2-SVP def2-SVP/J NBO PAL2
% maxcore 2000
% output
    # printlevel mini
    print[ P_Basis ] 0
    print[ P_SCFInfo ] 1
    print[ P_SCFIterInfo ] 1
    print[ P_OrbEn ] 0
    print[ P_Cartesian ] 0
end
*xyz 0 1
 C        2.6139290000     0.9881390000     0.1282760000 
 O        2.1197540000    -0.3007650000    -0.1464320000 
 C        2.7411690000    -1.2738430000     0.6148260000 
 C        2.7543050000    -2.6588580000     0.0631170000 
 C        4.0284670000    -1.8613800000     0.1511060000 
 O        4.9729660000    -2.1645620000     1.1257190000 
 H        2.0783800000     1.6844330000    -0.5170600000 
 H        3.6892530000     1.0579730000    -0.0769100000 
 H        2.4410050000     1.2669650000     1.1758650000 
 H        2.6305420000    -1.1682270000     1.6941110000 
 H        2.3228440000    -2.8033480000    -0.9195850000 
 H        2.6161420000    -3.4718260000     0.7651880000 
 H        4.4210030000    -1.4734580000    -0.7869770000 
 H        5.3826400000    -3.0039430000     0.8990760000 
*
