! RI PBE def2-SVP def2-SVP/J NBO PAL2
% maxcore 2000
% output
    # printlevel mini
    print[ P_Basis ] 0
    print[ P_SCFInfo ] 1
    print[ P_SCFIterInfo ] 1
    print[ P_OrbEn ] 0
    print[ P_Cartesian ] 0
end
*xyz 0 1
 C        2.9152160000     0.4797670000    -0.8295850000 
 O        2.1052560000    -0.0634960000     0.1775570000 
 C        2.7049120000    -1.1389130000     0.8319160000 
 C        1.8544570000    -1.7948880000     1.9178770000 
 C        2.4334800000    -3.1526990000     1.4734150000 
 C        2.8003700000    -2.5067230000     0.1223980000 
 H        2.3747490000     1.3175220000    -1.2708460000 
 H        3.1338230000    -0.2537310000    -1.6171370000 
 H        3.8690740000     0.8461880000    -0.4240810000 
 H        3.6907240000    -0.8428200000     1.2243270000 
 H        0.7986560000    -1.7093330000     1.6517040000 
 H        1.9936610000    -1.4710950000     2.9498680000 
 H        1.7593020000    -4.0089520000     1.4572290000 
 H        3.3225360000    -3.4213430000     2.0472700000 
 H        1.9835590000    -2.6066220000    -0.5968800000 
 H        3.7403150000    -2.7904720000    -0.3532230000 
*
