! RI PBE def2-SVP def2-SVP/J NBO PAL2
% maxcore 2000
% output
    # printlevel mini
    print[ P_Basis ] 0
    print[ P_SCFInfo ] 1
    print[ P_SCFIterInfo ] 1
    print[ P_OrbEn ] 0
    print[ P_Cartesian ] 0
end
*xyz 0 1
 C        1.1508440000     0.8228530000    -0.1293230000 
 O        1.9555780000     0.5996550000    -1.2597680000 
 C        2.6866700000    -0.5898070000    -1.2166530000 
 C        3.8206630000    -0.6101050000    -0.2303900000 
 C        2.8560960000    -1.2326380000    -2.5467530000 
 C        1.9351220000    -1.8507790000    -1.5247460000 
 H        0.5493170000     1.7082640000    -0.3368450000 
 H        1.7451190000     1.0099990000     0.7732620000 
 H        0.4824530000    -0.0261380000     0.0623120000 
 H        3.4643240000    -0.5355540000     0.8003450000 
 H        4.5020330000     0.2231810000    -0.4205760000 
 H        4.3837600000    -1.5410260000    -0.3168310000 
 H        3.7969900000    -1.7237050000    -2.7631510000 
 H        2.3926300000    -0.7314130000    -3.3867390000 
 H        2.2387120000    -2.7705170000    -1.0390870000 
 H        0.8714880000    -1.7601610000    -1.7076580000 
*
