! RI PBE def2-SVP def2-SVP/J NBO PAL2
% maxcore 2000
% output
    # printlevel mini
    print[ P_Basis ] 0
    print[ P_SCFInfo ] 1
    print[ P_SCFIterInfo ] 1
    print[ P_OrbEn ] 0
    print[ P_Cartesian ] 0
end
*xyz 0 1
 C        2.7303960000    -1.0385020000     0.0657510000 
 O        2.1575060000     0.2228900000     0.2937650000 
 C        2.8340130000     1.2480480000    -0.3598500000 
 C        2.2747480000     2.6368600000    -0.0763870000 
 O        3.5719740000     3.1246120000     0.2962330000 
 C        4.1196770000     1.7997260000     0.2783720000 
 H        2.1234260000    -1.7733880000     0.5940470000 
 H        3.7596910000    -1.0933300000     0.4444340000 
 H        2.7399610000    -1.2854820000    -1.0047420000 
 H        2.9449490000     1.0203520000    -1.4283140000 
 H        1.5741490000     2.6366700000     0.7658150000 
 H        1.8501410000     3.1928380000    -0.9160100000 
 H        4.2912340000     1.4114860000     1.2898410000 
 H        5.0441550000     1.7472300000    -0.3033670000 
*
