! RI PBE def2-SVP def2-SVP/J NBO PAL2
% maxcore 2000
% output
    # printlevel mini
    print[ P_Basis ] 0
    print[ P_SCFInfo ] 1
    print[ P_SCFIterInfo ] 1
    print[ P_OrbEn ] 0
    print[ P_Cartesian ] 0
end
*xyz 0 1
 C        1.1613690000    -0.0503890000     0.5034120000 
 O        2.5558910000     0.0604030000     0.5105810000 
 C        2.9966770000     1.2935450000    -0.0003350000 
 C        4.4895550000     1.3324700000    -0.0071800000 
 C        5.1814970000     2.6577810000     0.0893780000 
 C        5.2249990000     1.7021600000     1.2417770000 
 H        0.9050690000    -1.0300860000     0.9076340000 
 H        0.7527710000     0.0318740000    -0.5142080000 
 H        0.6898940000     0.7242230000     1.1255920000 
 H        2.6058790000     2.1215630000     0.6148310000 
 H        2.6042200000     1.4359810000    -1.0205630000 
 H        4.9548540000     0.5851850000    -0.6412900000 
 H        4.5641650000     3.5431500000     0.1891750000 
 H        6.0822770000     2.8062240000    -0.4923930000 
 H        4.6315600000     1.9355080000     2.1177280000 
 H        6.1578330000     1.1956890000     1.4543510000 
*
