! RI PBE def2-SVP def2-SVP/J NBO PAL2
% maxcore 2000
% output
    # printlevel mini
    print[ P_Basis ] 0
    print[ P_SCFInfo ] 1
    print[ P_SCFIterInfo ] 1
    print[ P_OrbEn ] 0
    print[ P_Cartesian ] 0
end
*xyz 0 1
 C        1.6974470000     0.2967310000     0.8843590000 
 O        3.0260860000     0.6489740000     0.6131100000 
 C        3.3764900000     0.4250730000    -0.7253710000 
 C        4.7804100000     0.9038700000    -0.9357900000 
 C        5.9119990000    -0.0118470000    -0.8768530000 
 O        5.4053250000     0.4460950000    -2.1215880000 
 H        1.5096440000     0.5074690000     1.9372350000 
 H        1.5170130000    -0.7709790000     0.6972090000 
 H        0.9937420000     0.8785710000     0.2728290000 
 H        2.6954060000     0.9696110000    -1.3988600000 
 H        3.3123130000    -0.6427840000    -0.9843020000 
 H        4.9528680000     1.9536490000    -0.7038920000 
 H        5.7320170000    -1.0622290000    -0.6604030000 
 H        6.8959410000     0.3646070000    -0.6099920000 
*
