! RI PBE def2-SVP def2-SVP/J NBO PAL2
% maxcore 2000
% output
    # printlevel mini
    print[ P_Basis ] 0
    print[ P_SCFInfo ] 1
    print[ P_SCFIterInfo ] 1
    print[ P_OrbEn ] 0
    print[ P_Cartesian ] 0
end
*xyz 0 1
 C        1.2541240000     0.6220290000     0.0692000000 
 O        2.6460280000     0.4637470000    -0.0521710000 
 C        3.2484270000    -0.1148040000     1.0194630000 
 C        4.5587490000    -0.3416690000     1.0799650000 
 C        5.4881280000     0.0220380000    -0.0313380000 
 C        5.1556010000    -0.9827520000     2.2904760000 
 H        0.9044170000     1.0918560000    -0.8493310000 
 H        0.9965010000     1.2658600000     0.9186130000 
 H        0.7497950000    -0.3442560000     0.1889550000 
 H        2.5862100000    -0.3867580000     1.8394900000 
 H        4.9607580000     0.4818920000    -0.8661900000 
 H        6.0158940000    -0.8638220000    -0.4020750000 
 H        6.2571000000     0.7201340000     0.3180510000 
 H        4.4001080000    -1.2107860000     3.0451980000 
 H        5.9077780000    -0.3327010000     2.7519120000 
 H        5.6665520000    -1.9172180000     2.0317020000 
*
