! RI PBE def2-SVP def2-SVP/J NBO PAL2
% maxcore 2000
% output
    # printlevel mini
    print[ P_Basis ] 0
    print[ P_SCFInfo ] 1
    print[ P_SCFIterInfo ] 1
    print[ P_OrbEn ] 0
    print[ P_Cartesian ] 0
end
*xyz 0 1
 C        1.2561810000    -0.2571350000    -0.6773800000 
 O        2.6490240000    -0.0829680000    -0.6004010000 
 C        3.1157500000     1.1831180000    -0.5937430000 
 C        2.3592290000     2.2875530000    -0.6545600000 
 C        4.5713530000     1.2533560000    -0.5115140000 
 C        5.3812450000     0.2010810000    -0.4484640000 
 H        1.0789000000    -1.3313990000    -0.6704990000 
 H        0.8529660000     0.1728370000    -1.6007440000 
 H        0.7510240000     0.2010660000     0.1798980000 
 H        1.2810330000     2.2698780000    -0.7160130000 
 H        2.8441260000     3.2533750000    -0.6421030000 
 H        4.9782680000     2.2592480000    -0.5041590000 
 H        4.9922480000    -0.8096110000    -0.4547180000 
 H        6.4551620000     0.3280120000    -0.3889870000 
*
