! RI PBE def2-SVP def2-SVP/J NBO PAL2
% maxcore 2000
% output
    # printlevel mini
    print[ P_Basis ] 0
    print[ P_SCFInfo ] 1
    print[ P_SCFIterInfo ] 1
    print[ P_OrbEn ] 0
    print[ P_Cartesian ] 0
end
*xyz 0 1
 C        2.5315250000    -0.7324700000    -1.0434530000 
 O        2.2505660000    -0.0533420000     0.1487480000 
 C        2.8358410000    -0.5597200000     1.3499330000 
 C        2.3347540000     0.3919290000     2.4237920000 
 C        2.3522140000    -1.9765490000     1.6399870000 
 C        4.3584320000    -0.5132110000     1.2793300000 
 H        2.0014240000    -0.2006160000    -1.8346880000 
 H        2.1767030000    -1.7705330000    -1.0331110000 
 H        3.6007500000    -0.7320110000    -1.2891000000 
 H        1.2435590000     0.3796310000     2.4579750000 
 H        2.6579590000     1.4113040000     2.2037020000 
 H        2.7191340000     0.1068640000     3.4053000000 
 H        1.2605100000    -2.0133130000     1.6301360000 
 H        2.6980490000    -2.2976740000     2.6249210000 
 H        2.7310170000    -2.6952060000     0.9101540000 
 H        4.6944800000     0.4914380000     1.0128340000 
 H        4.7553690000    -1.2186210000     0.5462180000 
 H        4.7879560000    -0.7733190000     2.2492120000 
*
