! RI PBE def2-SVP def2-SVP/J NBO PAL2
% maxcore 2000
% output
    # printlevel mini
    print[ P_Basis ] 0
    print[ P_SCFInfo ] 1
    print[ P_SCFIterInfo ] 1
    print[ P_OrbEn ] 0
    print[ P_Cartesian ] 0
end
*xyz 0 1
 C        4.2347260000     1.2797570000     1.8245140000 
 O        3.3022330000     2.1349590000     1.2181940000 
 C        3.3307420000     2.0990380000    -0.1969640000 
 C        2.0916090000     2.8278430000    -0.6750050000 
 C        4.5815510000     2.7289410000    -0.7334380000 
 C        5.4500290000     2.1237140000    -1.5299340000 
 H        4.1002950000     1.3708280000     2.9026770000 
 H        5.2680150000     1.5446630000     1.5697900000 
 H        4.0650180000     0.2334710000     1.5331230000 
 H        3.2942490000     1.0498330000    -0.5328280000 
 H        2.1165550000     3.8693400000    -0.3461380000 
 H        1.1977100000     2.3584220000    -0.2603670000 
 H        2.0321480000     2.8082350000    -1.7644410000 
 H        4.7465940000     3.7606970000    -0.4265700000 
 H        5.3060710000     1.0930410000    -1.8412710000 
 H        6.3300540000     2.6318380000    -1.9075530000 
*
