! RI PBE def2-SVP def2-SVP/J NBO PAL2
% maxcore 2000
% output
    # printlevel mini
    print[ P_Basis ] 0
    print[ P_SCFInfo ] 1
    print[ P_SCFIterInfo ] 1
    print[ P_OrbEn ] 0
    print[ P_Cartesian ] 0
end
*xyz 0 1
 C        2.2957900000    -0.5569860000    -1.0377990000 
 O        2.1323940000     0.1593450000     0.1597840000 
 C        2.7249840000     1.4374840000     0.1417400000 
 C        2.2969070000     2.1560390000     1.4073730000 
 C        4.1872020000     1.3686950000     0.0318630000 
 C        5.3837320000     1.3174340000    -0.0524600000 
 H        1.7694820000    -1.5035740000    -0.9173840000 
 H        3.3527690000    -0.7570580000    -1.2489520000 
 H        1.8634440000    -0.0137160000    -1.8895850000 
 H        2.3540240000     1.9947560000    -0.7345140000 
 H        2.6515970000     1.6101190000     2.2823710000 
 H        1.2080510000     2.2121170000     1.4418410000 
 H        2.7101680000     3.1649820000     1.4307300000 
 H        6.4449080000     1.2708330000    -0.1230860000 
*
