! RI PBE def2-SVP def2-SVP/J NBO PAL2
% maxcore 2000
% output
    # printlevel mini
    print[ P_Basis ] 0
    print[ P_SCFInfo ] 1
    print[ P_SCFIterInfo ] 1
    print[ P_OrbEn ] 0
    print[ P_Cartesian ] 0
end
*xyz 0 1
 C        1.6366730000    -0.8729350000    -0.5894520000 
 O        2.9300180000    -0.4062690000    -0.3330430000 
 C        3.5948480000     0.0060690000    -1.4988440000 
 C        4.9885780000     0.4942620000    -1.1545720000 
 C        5.8241780000    -0.6116520000    -0.5276100000 
 C        5.6587630000     1.0645710000    -2.3958690000 
 H        1.1957250000    -1.1685240000     0.3631150000 
 H        1.6458830000    -1.7427350000    -1.2618630000 
 H        1.0084290000    -0.0938080000    -1.0447740000 
 H        3.0247420000     0.8106810000    -1.9911340000 
 H        3.6587860000    -0.8317800000    -2.2149250000 
 H        4.8704400000     1.2995540000    -0.4192040000 
 H        5.9795400000    -1.4283040000    -1.2406210000 
 H        5.3319750000    -1.0230620000     0.3545350000 
 H        6.8077430000    -0.2389130000    -0.2305490000 
 H        5.7817390000     0.2936420000    -3.1633320000 
 H        6.6521110000     1.4518460000    -2.1582780000 
 H        5.0766180000     1.8810580000    -2.8314890000 
*
