! RI PBE def2-SVP def2-SVP/J NBO PAL2
% maxcore 2000
% output
    # printlevel mini
    print[ P_Basis ] 0
    print[ P_SCFInfo ] 1
    print[ P_SCFIterInfo ] 1
    print[ P_OrbEn ] 0
    print[ P_Cartesian ] 0
end
*xyz 0 1
 C        0.9060260000     0.0486080000    -0.0322160000 
 O        2.3064730000     0.0661800000     0.0023180000 
 C        2.8046150000    -0.6106540000     1.1305380000 
 C        4.2564110000    -0.5798210000     1.1450770000 
 C        5.4573460000    -0.5666210000     1.1769740000 
 C        6.9068040000    -0.5426780000     1.2032440000 
 H        0.5957460000     0.5875560000    -0.9271520000 
 H        0.4722890000     0.5424530000     0.8491370000 
 H        0.5143100000    -0.9775460000    -0.0807990000 
 H        2.4578670000    -1.6567440000     1.1293920000 
 H        2.4166060000    -0.1482140000     2.0525660000 
 H        7.2771050000    -0.0943500000     2.1285060000 
 H        7.2957100000     0.0443980000     0.3674840000 
 H        7.3201410000    -1.5513070000     1.1257520000 
*
