! RI PBE def2-SVP def2-SVP/J NBO PAL2
% maxcore 2000
% output
    # printlevel mini
    print[ P_Basis ] 0
    print[ P_SCFInfo ] 1
    print[ P_SCFIterInfo ] 1
    print[ P_OrbEn ] 0
    print[ P_Cartesian ] 0
end
*xyz 0 1
 C        1.0373530000     0.1599920000     0.0198220000 
 O        2.4341860000     0.1042300000    -0.0932330000 
 C        2.8740470000    -0.9567430000    -0.9162640000 
 C        4.3825120000    -0.9275730000    -1.0197910000 
 C        4.9250560000     0.3609820000    -1.6168200000 
 O        4.8076030000     1.4645260000    -0.7513910000 
 H        0.7909330000     0.9961250000     0.6741630000 
 H        0.6380120000    -0.7646790000     0.4571250000 
 H        0.5611310000     0.3171070000    -0.9572970000 
 H        2.4237160000    -0.8545420000    -1.9167060000 
 H        2.5311850000    -1.9145980000    -0.4975990000 
 H        4.6892380000    -1.7728800000    -1.6453930000 
 H        4.8238280000    -1.0780760000    -0.0294400000 
 H        4.4200720000     0.5562870000    -2.5772570000 
 H        5.9907770000     0.2479850000    -1.8330220000 
 H        3.9175510000     1.4296560000    -0.3804070000 
*
