! RI PBE def2-SVP def2-SVP/J NBO PAL2
% maxcore 2000
% output
    # printlevel mini
    print[ P_Basis ] 0
    print[ P_SCFInfo ] 1
    print[ P_SCFIterInfo ] 1
    print[ P_OrbEn ] 0
    print[ P_Cartesian ] 0
end
*xyz 0 1
 C        1.3017200000    -0.1953340000    -0.1155360000 
 O        2.6957210000    -0.1605130000    -0.3096830000 
 C        3.1483390000    -0.2077740000    -1.5846490000 
 C        2.3997450000    -0.3335830000    -2.6781170000 
 C        4.6432490000    -0.1134070000    -1.5861420000 
 O        5.1149890000     1.0308900000    -0.9117810000 
 H        1.1345100000    -0.1114920000     0.9569640000 
 H        0.8783830000    -1.1378840000    -0.4780680000 
 H        0.8137010000     0.6383190000    -0.6310060000 
 H        1.3239150000    -0.4370030000    -2.6548700000 
 H        2.8815220000    -0.3384030000    -3.6456540000 
 H        5.0037480000    -0.0553480000    -2.6128470000 
 H        5.0524470000    -1.0286990000    -1.1324310000 
 H        4.6915200000     1.0448200000    -0.0482590000 
*
