! RI PBE def2-SVP def2-SVP/J NBO PAL2
% maxcore 2000
% output
    # printlevel mini
    print[ P_Basis ] 0
    print[ P_SCFInfo ] 1
    print[ P_SCFIterInfo ] 1
    print[ P_OrbEn ] 0
    print[ P_Cartesian ] 0
end
*xyz 0 1
 C        4.1558600000    -1.8494110000     0.7644450000 
 O        3.5631630000    -1.3123940000     1.9211210000 
 C        3.5453780000     0.0919450000     1.9278500000 
 C        2.6351770000     0.5496100000     3.0517620000 
 C        4.9368130000     0.6447730000     2.1744490000 
 O        5.3249560000     1.7082420000     1.7815010000 
 H        4.1218180000    -2.9345900000     0.8570350000 
 H        5.2032870000    -1.5386330000     0.6523090000 
 H        3.6087510000    -1.5487000000    -0.1386920000 
 H        3.1872770000     0.4868770000     0.9659210000 
 H        3.0056210000     0.1895850000     4.0144150000 
 H        1.6337990000     0.1454740000     2.8970280000 
 H        2.5826100000     1.6388530000     3.0770800000 
 H        5.5771910000    -0.0189300000     2.7996650000 
*
