! RI PBE def2-SVP def2-SVP/J NBO PAL2
% maxcore 2000
% output
    # printlevel mini
    print[ P_Basis ] 0
    print[ P_SCFInfo ] 1
    print[ P_SCFIterInfo ] 1
    print[ P_OrbEn ] 0
    print[ P_Cartesian ] 0
end
*xyz 0 1
 C        3.0117990000     0.5225970000     0.9301790000 
 O        3.9992440000     0.2325620000    -0.0200780000 
 C        3.5555540000    -0.6521770000    -1.0201280000 
 C        4.7385580000    -0.9874150000    -1.9085380000 
 C        5.2579760000     0.2187180000    -2.6713310000 
 O        5.7585290000    -1.5967180000    -1.1424770000 
 H        3.4480080000     1.2001510000     1.6646340000 
 H        2.6676990000    -0.3862650000     1.4423500000 
 H        2.1424460000     1.0107630000     0.4690420000 
 H        2.7451800000    -0.1961630000    -1.6089720000 
 H        3.1710580000    -1.5749220000    -0.5616830000 
 H        4.4079320000    -1.7507770000    -2.6207270000 
 H        5.5595240000     1.0097650000    -1.9812530000 
 H        4.4911090000     0.6222060000    -3.3381680000 
 H        6.1228190000    -0.0682500000    -3.2711850000 
 H        5.9030660000    -1.0266760000    -0.3793640000 
*
