! RI PBE def2-SVP def2-SVP/J NBO PAL2
% maxcore 2000
% output
    # printlevel mini
    print[ P_Basis ] 0
    print[ P_SCFInfo ] 1
    print[ P_SCFIterInfo ] 1
    print[ P_OrbEn ] 0
    print[ P_Cartesian ] 0
end
*xyz 0 1
 C        3.4637520000     0.5493170000     1.4443550000 
 O        4.2181680000    -0.1759390000     0.5142460000 
 C        3.4162370000    -0.8894050000    -0.3873580000 
 C        4.3276060000    -1.6275260000    -1.3382690000 
 O        3.5256810000    -2.3415930000    -2.2394020000 
 C        4.2800800000    -3.0647670000    -3.1711440000 
 H        4.1615870000     1.0688040000     2.1013580000 
 H        2.8277460000    -0.1109450000     2.0504180000 
 H        2.8195270000     1.2904620000     0.9509620000 
 H        2.7607380000    -0.2108580000    -0.9532480000 
 H        2.7721760000    -1.6074360000     0.1417530000 
 H        4.9834870000    -2.3056530000    -0.7723130000 
 H        4.9712820000    -0.9094640000    -1.8678010000 
 H        3.5822590000    -3.5860290000    -3.8267540000 
 H        4.9272480000    -3.8042980000    -2.6791810000 
 H        4.9131160000    -2.4027610000    -3.7784100000 
*
