! RI PBE def2-SVP def2-SVP/J NBO PAL2
% maxcore 2000
% output
    # printlevel mini
    print[ P_Basis ] 0
    print[ P_SCFInfo ] 1
    print[ P_SCFIterInfo ] 1
    print[ P_OrbEn ] 0
    print[ P_Cartesian ] 0
end
*xyz 0 1
 C        3.9124590000     1.0664800000    -0.7014470000 
 O        2.8279520000     0.2845490000    -0.2761370000 
 C        3.1252130000    -0.8177230000     0.4580720000 
 C        4.3465400000    -1.2258400000     0.8119170000 
 O        4.6438010000    -2.3281130000     1.5461250000 
 C        3.5593000000    -3.1101020000     1.9713450000 
 H        3.4958800000     1.8971720000    -1.2690330000 
 H        4.5907350000     0.4912430000    -1.3439680000 
 H        4.4803640000     1.4579160000     0.1518120000 
 H        2.2247240000    -1.3488330000     0.7348240000 
 H        5.2470280000    -0.6947250000     0.5351730000 
 H        3.9758860000    -3.9408500000     2.5388440000 
 H        2.9914050000    -3.5014500000     1.1180390000 
 H        2.8810130000    -2.5349440000     2.6139250000 
*
