! RI PBE def2-SVP def2-SVP/J NBO PAL2
% maxcore 2000
% output
    # printlevel mini
    print[ P_Basis ] 0
    print[ P_SCFInfo ] 1
    print[ P_SCFIterInfo ] 1
    print[ P_OrbEn ] 0
    print[ P_Cartesian ] 0
end
*xyz 0 1
 C        3.8029070000    -1.0498230000    -0.5866940000 
 O        2.8377000000    -1.3869310000     0.3811150000 
 C        2.9151080000    -0.6140210000     1.5438080000 
 C        1.6735110000    -0.9016820000     2.3559790000 
 O        4.1170900000    -0.8202830000     2.2395170000 
 C        4.2971010000    -2.1128080000     2.7724640000 
 H        3.6190110000    -1.6807040000    -1.4561680000 
 H        4.8207700000    -1.2217720000    -0.2230670000 
 H        3.7120810000     0.0032610000    -0.8844880000 
 H        2.9614170000     0.4509290000     1.2752110000 
 H        1.5613140000    -1.9726220000     2.5314200000 
 H        0.7941890000    -0.5562130000     1.8114390000 
 H        1.7234900000    -0.3826100000     3.3142740000 
 H        5.3412310000    -2.1817780000     3.0781200000 
 H        4.0913190000    -2.8898910000     2.0294060000 
 H        3.6654910000    -2.2845240000     3.6514430000 
*
