! RI PBE def2-SVP def2-SVP/J NBO PAL2
% maxcore 2000
% output
    # printlevel mini
    print[ P_Basis ] 0
    print[ P_SCFInfo ] 1
    print[ P_SCFIterInfo ] 1
    print[ P_OrbEn ] 0
    print[ P_Cartesian ] 0
end
*xyz 0 1
 O        1.4335830000    -0.2548280000    -0.0738600000 
 C        0.4759590000    -1.2417990000    -0.0773620000 
 C       -0.8269430000    -1.0105380000    -0.0832660000 
 O       -1.3864040000     0.2457080000    -0.0866380000 
 C       -0.4287790000     1.2326790000    -0.0833460000 
 C        0.8741220000     1.0014180000    -0.0774430000 
 H        0.8902920000    -2.2385500000    -0.0748270000 
 H       -1.5589960000    -1.8038110000    -0.0859250000 
 H       -0.8431110000     2.2294300000    -0.0860700000 
 H        1.6061770000     1.7946900000    -0.0749730000 
*
