! RI PBE def2-SVP def2-SVP/J NBO PAL2
% maxcore 2000
% output
    # printlevel mini
    print[ P_Basis ] 0
    print[ P_SCFInfo ] 1
    print[ P_SCFIterInfo ] 1
    print[ P_OrbEn ] 0
    print[ P_Cartesian ] 0
end
*xyz 0 1
 O        1.0258320000    -0.0138200000    -0.1079210000 
 C        2.4172570000     0.0988960000    -0.0375380000 
 C        3.0729040000     1.1374570000     0.8949540000 
 C        4.1425630000     0.0775330000     1.2212000000 
 C        3.1271140000    -0.9886370000     0.7687430000 
 O        3.5446450000    -2.1769910000     0.1692500000 
 H        0.6814880000     0.6744970000    -0.6821430000 
 H        2.8683100000     0.1595430000    -1.0402770000 
 H        2.4248270000     1.3299710000     1.7521400000 
 H        3.3969470000     2.0848720000     0.4642070000 
 H        4.5270710000     0.0183630000     2.2386270000 
 H        4.9860030000     0.1332190000     0.5267610000 
 H        2.4832450000    -1.2743830000     1.6047300000 
 H        4.1144940000    -1.9597000000    -0.5734540000 
*
