! RI PBE def2-SVP def2-SVP/J NBO PAL2
% maxcore 2000
% output
    # printlevel mini
    print[ P_Basis ] 0
    print[ P_SCFInfo ] 1
    print[ P_SCFIterInfo ] 1
    print[ P_OrbEn ] 0
    print[ P_Cartesian ] 0
end
*xyz 0 1
 O        0.9383890000    -0.0404780000    -0.1690990000 
 C        2.3386710000     0.0070850000     0.0007740000 
 C        2.8481950000     1.1282070000     0.8985830000 
 C        4.2588290000     0.6690840000     1.2505040000 
 C        4.1584650000    -0.8692680000     1.3601970000 
 C        2.8163560000    -1.2511780000     0.7113840000 
 H        0.6614130000     0.7506860000    -0.6373940000 
 H        2.8339050000     0.0846470000    -0.9803830000 
 H        2.2125420000     1.1637740000     1.7901170000 
 H        2.8182370000     2.1129020000     0.4238070000 
 H        4.6393240000     1.1332640000     2.1620440000 
 H        4.9481130000     0.9437530000     0.4465920000 
 H        4.1891390000    -1.1931500000     2.4022840000 
 H        5.0015030000    -1.3517050000     0.8617250000 
 H        2.0681050000    -1.4985170000     1.4698860000 
 H        2.8879220000    -2.1065960000     0.0378900000 
*
