! RI PBE def2-SVP def2-SVP/J NBO PAL2
% maxcore 2000
% output
    # printlevel mini
    print[ P_Basis ] 0
    print[ P_SCFInfo ] 1
    print[ P_SCFIterInfo ] 1
    print[ P_OrbEn ] 0
    print[ P_Cartesian ] 0
end
*xyz 0 1
 O        1.2972310000    -0.1040240000     0.8066690000 
 C        2.3905720000    -0.0692520000     0.3110630000 
 C        3.2223760000     1.1812080000     0.0749550000 
 C        4.3614890000     0.7287640000    -0.8315770000 
 C        4.5878510000    -0.7347880000    -0.4347890000 
 C        3.1812830000    -1.2682080000    -0.1875350000 
 H        3.6000930000     1.4984060000     1.0547920000 
 H        2.6046550000     1.9944370000    -0.3077270000 
 H        5.2611810000     1.3376750000    -0.7319770000 
 H        4.0471280000     0.7819250000    -1.8788860000 
 H        5.1707590000    -0.7793800000     0.4908090000 
 H        5.1369450000    -1.2976450000    -1.1909810000 
 H        3.1053670000    -2.1032710000     0.5098040000 
 H        2.7103800000    -1.5887460000    -1.1250090000 
*
