! RI PBE def2-SVP def2-SVP/J NBO PAL2
% maxcore 2000
% output
    # printlevel mini
    print[ P_Basis ] 0
    print[ P_SCFInfo ] 1
    print[ P_SCFIterInfo ] 1
    print[ P_OrbEn ] 0
    print[ P_Cartesian ] 0
end
*xyz 0 1
 O        0.8278730000    -0.0010800000    -0.0601160000 
 C        2.0303260000    -0.0010600000    -0.0653590000 
 C        2.9359510000     1.1977630000    -0.0691820000 
 C        4.1889190000     0.7462710000    -0.0747340000 
 C        4.1889430000    -0.7483190000    -0.0749850000 
 C        2.9359890000    -1.1998530000    -0.0695870000 
 H        2.5805700000     2.2171270000    -0.0674730000 
 H        5.0922230000     1.3419880000    -0.0785950000 
 H        5.0922660000    -1.3440070000    -0.0790470000 
 H        2.5806400000    -2.2192290000    -0.0682210000 
*
