! RI PBE def2-SVP def2-SVP/J NBO PAL2
% maxcore 2000
% output
    # printlevel mini
    print[ P_Basis ] 0
    print[ P_SCFInfo ] 1
    print[ P_SCFIterInfo ] 1
    print[ P_OrbEn ] 0
    print[ P_Cartesian ] 0
end
*xyz 0 1
 O        1.1717250000    -0.0959630000     0.5552390000 
 C        2.3101130000    -0.0962160000     0.1786310000 
 C        3.1575280000    -1.3326980000    -0.1017800000 
 C        4.4695290000    -0.7620030000    -0.5360590000 
 C        4.4697880000     0.5686080000    -0.5361710000 
 C        3.1580090000     1.1398870000    -0.1019890000 
 H        2.6695190000    -1.9512990000    -0.8630780000 
 H        3.2201180000    -1.9511600000     0.8004310000 
 H        5.3160950000    -1.3770340000    -0.8162720000 
 H        5.3165940000     1.1832620000    -0.8164870000 
 H        2.6702420000     1.7585490000    -0.8633920000 
 H        3.2208410000     1.7584780000     0.8001170000 
*
