! RI PBE def2-SVP def2-SVP/J NBO PAL2
% maxcore 2000
% output
    # printlevel mini
    print[ P_Basis ] 0
    print[ P_SCFInfo ] 1
    print[ P_SCFIterInfo ] 1
    print[ P_OrbEn ] 0
    print[ P_Cartesian ] 0
end
*xyz 0 1
 O        1.0294120000     0.0225350000    -0.5401400000 
 C        2.1798700000     0.0333910000    -0.1795460000 
 C        3.0521260000    -1.1937690000     0.0618710000 
 C        4.4098580000    -0.6502190000     0.5030580000 
 C        4.2316030000     0.8374970000     0.4869270000 
 C        3.0089940000     1.2170290000     0.1133070000 
 H        3.1007420000    -1.7799800000    -0.8581700000 
 H        2.5750740000    -1.8250500000     0.8144590000 
 H        5.2240740000    -0.9481320000    -0.1656390000 
 H        4.7000200000    -0.9927400000     1.5017370000 
 H        5.0358420000     1.5129670000     0.7577730000 
 H        2.6377850000     2.2291810000     0.0242620000 
*
