! RI PBE def2-SVP def2-SVP/J NBO PAL2
% maxcore 2000
% output
    # printlevel mini
    print[ P_Basis ] 0
    print[ P_SCFInfo ] 1
    print[ P_SCFIterInfo ] 1
    print[ P_OrbEn ] 0
    print[ P_Cartesian ] 0
end
*xyz 0 1
 O        0.8241120000     0.0046410000     0.2784520000 
 C        2.2209210000     0.0642740000     0.1011640000 
 C        2.7767390000     1.2309990000    -0.6728160000 
 C        3.5995570000     0.7693170000    -1.6204270000 
 C        3.5836580000    -0.6990910000    -1.6036840000 
 C        2.7522780000    -1.1217780000    -0.6457660000 
 H        0.5521660000     0.7667670000     0.7957930000 
 H        2.7347060000     0.0665090000     1.0834870000 
 H        2.5715910000     2.2659030000    -0.4319700000 
 H        4.1935930000     1.3671430000    -2.3001150000 
 H        4.1620200000    -1.3252830000    -2.2706570000 
 H        2.5059680000    -2.1406920000    -0.3827610000 
*
