! RI PBE def2-SVP def2-SVP/J NBO PAL2
% maxcore 2000
% output
    # printlevel mini
    print[ P_Basis ] 0
    print[ P_SCFInfo ] 1
    print[ P_SCFIterInfo ] 1
    print[ P_OrbEn ] 0
    print[ P_Cartesian ] 0
end
*xyz 0 1
 O        1.0721010000     0.0991060000    -0.1074300000 
 C        2.4926890000     0.0152800000    -0.0583100000 
 C        3.0155370000    -1.2618660000     0.6240560000 
 C        3.3581000000    -0.8652610000     2.0676140000 
 C        3.4320770000     0.6296040000     1.9984190000 
 C        2.9833310000     1.1072330000     0.8444110000 
 H        0.7620950000    -0.4862600000    -0.8032010000 
 H        2.8920290000     0.1139480000    -1.0766950000 
 H        3.9196640000    -1.6003590000     0.1116650000 
 H        2.2806180000    -2.0669650000     0.5621610000 
 H        4.2955820000    -1.3147540000     2.4077100000 
 H        2.5893130000    -1.1758930000     2.7843990000 
 H        3.7874220000     1.2375070000     2.8232190000 
 H        2.8983510000     2.1542000000     0.5805830000 
*
