! RI PBE def2-SVP def2-SVP/J NBO PAL2
% maxcore 2000
% output
    # printlevel mini
    print[ P_Basis ] 0
    print[ P_SCFInfo ] 1
    print[ P_SCFIterInfo ] 1
    print[ P_OrbEn ] 0
    print[ P_Cartesian ] 0
end
*xyz 0 1
 O        0.9714260000    -0.2154530000     0.0280020000 
 C        2.2915740000    -0.0073690000     0.0329440000 
 C        3.0850180000     1.0938630000     0.0340350000 
 C        4.4228220000     0.5827420000     0.0404170000 
 C        4.3234560000    -0.7621450000     0.0426160000 
 O        3.0071940000    -1.1339450000     0.0380100000 
 H        0.5265670000     0.6361030000     0.0246320000 
 H        2.7682270000     2.1241720000     0.0307680000 
 H        5.3367440000     1.1551980000     0.0430030000 
 H        5.0362620000    -1.5679660000     0.0470520000 
*
