! RI PBE def2-SVP def2-SVP/J NBO PAL2
% maxcore 2000
% output
    # printlevel mini
    print[ P_Basis ] 0
    print[ P_SCFInfo ] 1
    print[ P_SCFIterInfo ] 1
    print[ P_OrbEn ] 0
    print[ P_Cartesian ] 0
end
*xyz 0 1
 O        1.2795710000    -0.1438380000     0.2850510000 
 C        2.4200650000    -0.0175510000    -0.0386370000 
 C        3.2686750000     1.2364470000    -0.0336620000 
 C        4.4491480000     0.8698260000    -0.9169140000 
 C        4.5106490000    -0.6430500000    -0.7372430000 
 O        3.1677130000    -1.0557720000    -0.4786720000 
 H        3.5694170000     1.4246490000     1.0020380000 
 H        2.6811720000     2.0900520000    -0.3668230000 
 H        5.3828230000     1.3582920000    -0.6383990000 
 H        4.2349820000     1.1160880000    -1.9593890000 
 H        5.1320880000    -0.9285990000     0.1177970000 
 H        4.8602890000    -1.1790450000    -1.6192680000 
*
