! RI PBE def2-SVP def2-SVP/J NBO PAL2
% maxcore 2000
% output
    # printlevel mini
    print[ P_Basis ] 0
    print[ P_SCFInfo ] 1
    print[ P_SCFIterInfo ] 1
    print[ P_OrbEn ] 0
    print[ P_Cartesian ] 0
end
*xyz 0 1
 O        0.8476700000    -0.0553060000     0.0558730000 
 C        2.1990010000    -0.0144680000     0.0611340000 
 C        3.0432380000     1.0497680000     0.0645710000 
 O        4.3305000000     0.6090260000     0.0695130000 
 C        4.2890740000    -0.7350960000     0.0691460000 
 C        3.0121210000    -1.1839420000     0.0641370000 
 H        0.4997930000     0.8401450000     0.0546980000 
 H        2.8961860000     2.1166940000     0.0641540000 
 H        5.2411500000    -1.2396590000     0.0727680000 
 H        2.6748670000    -2.2076510000     0.0626860000 
*
