! RI PBE def2-SVP def2-SVP/J NBO PAL2
% maxcore 2000
% output
    # printlevel mini
    print[ P_Basis ] 0
    print[ P_SCFInfo ] 1
    print[ P_SCFIterInfo ] 1
    print[ P_OrbEn ] 0
    print[ P_Cartesian ] 0
end
*xyz 0 1
 O        0.9050830000    -0.0715140000    -0.0326920000 
 C        2.3091080000     0.0244850000    -0.0047730000 
 C        2.8759110000     1.1319740000     0.8763430000 
 C        4.2538800000     0.5878040000     1.2044870000 
 O        4.1280510000    -0.8296560000     1.2232060000 
 C        2.8875490000    -1.2142350000     0.6631290000 
 H        0.5558710000     0.6650040000    -0.5395140000 
 H        2.7092290000     0.1181040000    -1.0242510000 
 H        2.2565660000     1.2063910000     1.7746700000 
 H        2.9072080000     2.1086830000     0.3892730000 
 H        4.6270310000     0.9219000000     2.1759960000 
 H        4.9895520000     0.8763540000     0.4420410000 
 H        2.1930380000    -1.5490140000     1.4448830000 
 H        3.0491130000    -2.0393700000    -0.0349990000 
*
