! RI PBE def2-SVP def2-SVP/J NBO PAL2
% maxcore 2000
% output
    # printlevel mini
    print[ P_Basis ] 0
    print[ P_SCFInfo ] 1
    print[ P_SCFIterInfo ] 1
    print[ P_OrbEn ] 0
    print[ P_Cartesian ] 0
end
*xyz 0 1
 O        1.0941120000    -0.1119590000     0.5958060000 
 C        2.2369370000    -0.0394880000     0.2430510000 
 C        3.0725140000     1.2127390000     0.0593560000 
 C        4.2641600000     0.6895840000    -0.7241510000 
 O        4.4240530000    -0.6595360000    -0.3030830000 
 C        3.1393410000    -1.2029960000    -0.1320300000 
 H        3.3722870000     1.5644290000     1.0518220000 
 H        2.4982880000     2.0020240000    -0.4251810000 
 H        5.1993220000     1.2104200000    -0.5212670000 
 H        4.0694180000     0.7292000000    -1.8054760000 
 H        3.1572810000    -1.9680780000     0.6462780000 
 H        2.7546970000    -1.6581390000    -1.0587260000 
*
