! RI PBE def2-SVP def2-SVP/J NBO PAL2
% maxcore 2000
% output
    # printlevel mini
    print[ P_Basis ] 0
    print[ P_SCFInfo ] 1
    print[ P_SCFIterInfo ] 1
    print[ P_OrbEn ] 0
    print[ P_Cartesian ] 0
end
*xyz 0 1
 O        1.0272970000     0.0032550000     0.1581800000 
 C        2.4183470000     0.0608770000     0.0058910000 
 C        3.1845930000     1.1622250000     0.7841020000 
 C        4.0929980000     0.0584160000     1.3078530000 
 O        5.1704250000     0.0478810000     1.8206050000 
 C        3.1484040000    -1.0258320000     0.8131970000 
 H        0.6274240000     0.7062270000    -0.3601910000 
 H        2.7070410000     0.0412740000    -1.0511800000 
 H        2.5657940000     1.5651980000     1.5920220000 
 H        3.6553630000     1.9809870000     0.2382440000 
 H        2.5103320000    -1.3837760000     1.6273850000 
 H        3.5829830000    -1.8787210000     0.2917830000 
*
