! RI PBE def2-SVP def2-SVP/J NBO PAL2
% maxcore 2000
% output
    # printlevel mini
    print[ P_Basis ] 0
    print[ P_SCFInfo ] 1
    print[ P_SCFIterInfo ] 1
    print[ P_OrbEn ] 0
    print[ P_Cartesian ] 0
end
*xyz 0 1
 O        0.7864280000     0.0192910000     0.2314560000 
 C        2.1770090000     0.1167820000     0.0711500000 
 C        2.9548210000     1.1581300000     0.9029590000 
 C        4.0125210000     0.0815730000     1.1746780000 
 O        5.0558600000     0.2178010000     0.2321510000 
 C        2.9654460000    -0.9826790000     0.7859640000 
 H        0.3648530000     0.6967120000    -0.3030640000 
 H        2.4513150000     0.1764880000    -0.9873890000 
 H        2.3979980000     1.4039580000     1.8092100000 
 H        3.3068650000     2.0687490000     0.4167620000 
 H        4.4135980000     0.0274130000     2.1923220000 
 H        5.6040250000    -0.5701740000     0.2739170000 
 H        2.4070500000    -1.3249480000     1.6603260000 
 H        3.3040100000    -1.8435860000     0.2063780000 
*
