! RI PBE def2-SVP def2-SVP/J NBO PAL2
% maxcore 2000
% output
    # printlevel mini
    print[ P_Basis ] 0
    print[ P_SCFInfo ] 1
    print[ P_SCFIterInfo ] 1
    print[ P_OrbEn ] 0
    print[ P_Cartesian ] 0
end
*xyz 0 1
 O        1.0936470000    -0.0610000000    -0.2115230000 
 C        2.2490950000     0.0563950000     0.0636980000 
 O        3.0405030000    -1.0096360000     0.3875400000 
 C        4.3555590000    -0.5683730000     0.6625010000 
 C        4.3200170000     0.9081930000     0.4775660000 
 C        3.0915100000     1.2676080000     0.1278540000 
 H        5.0532740000    -1.0598470000    -0.0247980000 
 H        4.6274450000    -0.8560050000     1.6842940000 
 H        5.1839730000     1.5444750000     0.6167330000 
 H        2.7050770000     2.2520800000    -0.0867830000 
*
