! RI PBE def2-SVP def2-SVP/J NBO PAL2
% maxcore 2000
% output
    # printlevel mini
    print[ P_Basis ] 0
    print[ P_SCFInfo ] 1
    print[ P_SCFIterInfo ] 1
    print[ P_OrbEn ] 0
    print[ P_Cartesian ] 0
end
*xyz 0 1
 O        1.2636920000     0.5095810000    -0.0169950000 
 C        2.5711970000    -0.0346390000    -0.0333950000 
 C        3.1443460000     0.0649790000     1.3408820000 
 C        4.6358470000     0.1504530000     1.5360240000 
 C        3.7831780000     1.3393710000     1.7943410000 
 O        3.6598410000     1.7379690000     3.1210920000 
 H        0.8671570000     0.3784410000    -0.8812860000 
 H        3.2163180000     0.5126920000    -0.7367160000 
 H        2.5514210000    -1.0853830000    -0.3555210000 
 H        2.6010640000    -0.4772650000     2.1081110000 
 H        5.2766470000     0.1545840000     0.6621710000 
 H        5.0459130000    -0.3457240000     2.4060700000 
 H        3.8245070000     2.1513880000     1.0701980000 
 H        2.7639630000     2.0621630000     3.2497230000 
*
