! RI PBE def2-SVP def2-SVP/J NBO PAL2
% maxcore 2000
% output
    # printlevel mini
    print[ P_Basis ] 0
    print[ P_SCFInfo ] 1
    print[ P_SCFIterInfo ] 1
    print[ P_OrbEn ] 0
    print[ P_Cartesian ] 0
end
*xyz 0 1
 O        2.4032470000     0.4350030000    -1.3793390000 
 C        2.4385760000    -0.0001400000    -0.0338760000 
 C        3.1793870000    -1.3054370000     0.0288980000 
 C        3.2534540000    -2.0335430000     1.3857420000 
 C        3.0892900000    -3.3664920000     0.6301110000 
 C        2.5266490000    -2.5707380000    -0.5628300000 
 H        1.9022720000     1.2519910000    -1.4254390000 
 H        1.4205070000    -0.1424420000     0.3598660000 
 H        2.9414970000     0.7401740000     0.6067980000 
 H        4.1822490000    -1.1677290000    -0.3874550000 
 H        2.3728900000    -1.8129730000     1.9966270000 
 H        4.1459110000    -1.8914130000     1.9974180000 
 H        2.4566310000    -4.1331370000     1.0797990000 
 H        4.0582620000    -3.8114660000     0.3933760000 
 H        1.4361070000    -2.4991510000    -0.5197710000 
 H        2.8158710000    -2.8721140000    -1.5697260000 
*
