! RI PBE def2-SVP def2-SVP/J NBO PAL2
% maxcore 2000
% output
    # printlevel mini
    print[ P_Basis ] 0
    print[ P_SCFInfo ] 1
    print[ P_SCFIterInfo ] 1
    print[ P_OrbEn ] 0
    print[ P_Cartesian ] 0
end
*xyz 0 1
 O        2.1734230000     0.8608320000     0.2694140000 
 C        2.0389370000    -0.3100330000     0.0484290000 
 C        3.1969190000    -1.2471360000    -0.1710250000 
 C        4.0725440000    -1.5495920000     1.0565840000 
 C        3.6512240000    -2.9999160000     0.8053340000 
 O        2.7897000000    -2.6122300000    -0.2788270000 
 H        1.0391690000    -0.7949100000     0.0011470000 
 H        3.7539110000    -0.9073740000    -1.0540220000 
 H        3.7105240000    -1.1111010000     1.9856650000 
 H        5.1307970000    -1.3268820000     0.9400930000 
 H        3.0941840000    -3.4901010000     1.6083880000 
 H        4.4509680000    -3.6633670000     0.4630200000 
*
