! RI PBE def2-SVP def2-SVP/J NBO PAL2
% maxcore 2000
% output
    # printlevel mini
    print[ P_Basis ] 0
    print[ P_SCFInfo ] 1
    print[ P_SCFIterInfo ] 1
    print[ P_OrbEn ] 0
    print[ P_Cartesian ] 0
end
*xyz 0 1
 O        2.4129590000    -1.1550320000     0.7689000000 
 C        2.4046680000    -0.0447400000    -0.1044650000 
 C        3.0203110000     1.1224540000     0.6182790000 
 C        2.8648420000     2.4722250000    -0.0897740000 
 O        1.9333350000     2.9362750000     0.8941570000 
 C        2.1412500000     1.7631900000     1.6971450000 
 H        1.9662760000    -1.8890360000     0.3416960000 
 H        1.3791770000     0.2162350000    -0.4052710000 
 H        2.9779610000    -0.2557130000    -1.0193210000 
 H        4.0329450000     0.8693620000     0.9352080000 
 H        2.4231130000     2.4427760000    -1.0926180000 
 H        3.7696990000     3.0891100000    -0.1174030000 
 H        1.2050950000     1.2421930000     1.9198960000 
 H        2.6539780000     2.0018800000     2.6346810000 
*
