! RI PBE def2-SVP def2-SVP/J NBO PAL2
% maxcore 2000
% output
    # printlevel mini
    print[ P_Basis ] 0
    print[ P_SCFInfo ] 1
    print[ P_SCFIterInfo ] 1
    print[ P_OrbEn ] 0
    print[ P_Cartesian ] 0
end
*xyz 0 1
 O        2.5773140000     0.3310230000     0.9375540000 
 C        2.1619930000    -0.2401980000    -0.0321220000 
 C        2.9936130000    -1.0624610000    -0.9740380000 
 C        4.4624330000    -1.0639690000    -0.6802220000 
 C        5.4346440000    -1.4673780000    -1.7455330000 
 C        5.3512090000    -0.0364940000    -1.3065300000 
 H        1.0792510000    -0.2003670000    -0.2882960000 
 H        2.7896420000    -0.7025880000    -1.9915750000 
 H        2.5721910000    -2.0786480000    -0.9494020000 
 H        4.7129430000    -1.3463690000     0.3360690000 
 H        5.0385870000    -1.7211780000    -2.7222160000 
 H        6.3038710000    -2.0438280000    -1.4549290000 
 H        4.8970510000     0.6756910000    -1.9857110000 
 H        6.1597600000     0.3690550000    -0.7122600000 
*
