! RI PBE def2-SVP def2-SVP/J NBO PAL2
% maxcore 2000
% output
    # printlevel mini
    print[ P_Basis ] 0
    print[ P_SCFInfo ] 1
    print[ P_SCFIterInfo ] 1
    print[ P_OrbEn ] 0
    print[ P_Cartesian ] 0
end
*xyz 0 1
 O        2.5607770000     0.3493460000    -1.3593940000 
 C        2.2997000000    -0.1987090000    -0.0807510000 
 C        3.2204970000     0.4723750000     0.9156780000 
 C        4.6639620000     0.1568710000     0.6644110000 
 C        5.6251490000     0.0246270000     1.7524480000 
 O        5.1097080000    -1.1240150000     1.0998440000 
 H        2.0825500000    -0.1595910000    -2.0169900000 
 H        2.4810640000    -1.2814630000    -0.0701310000 
 H        1.2547620000    -0.0275310000     0.2111220000 
 H        2.9526550000     0.1468310000     1.9251990000 
 H        3.0701850000     1.5561120000     0.8622380000 
 H        5.0396680000     0.4386740000    -0.3168830000 
 H        5.2886180000     0.1658380000     2.7776100000 
 H        6.6783160000     0.2284360000     1.5747100000 
*
