! RI PBE def2-SVP def2-SVP/J NBO PAL2
% maxcore 2000
% output
    # printlevel mini
    print[ P_Basis ] 0
    print[ P_SCFInfo ] 1
    print[ P_SCFIterInfo ] 1
    print[ P_OrbEn ] 0
    print[ P_Cartesian ] 0
end
*xyz 0 1
 O        2.5000290000     0.5962730000     1.0282850000 
 C        2.1109460000     0.2704790000    -0.0593240000 
 C        2.9980090000    -0.1340960000    -1.1989490000 
 C        4.4596760000    -0.1188310000    -0.8735010000 
 C        5.1729450000    -1.3290240000    -0.4879730000 
 O        5.3044580000    -0.7900150000    -1.7945560000 
 H        1.0233310000     0.2556750000    -0.2899350000 
 H        2.7799940000     0.5397040000    -2.0390770000 
 H        2.6869950000    -1.1284220000    -1.5419230000 
 H        4.8492320000     0.8314410000    -0.5153570000 
 H        4.6309190000    -2.2701140000    -0.4262910000 
 H        6.0569650000    -1.2546600000     0.1393120000 
*
