! RI PBE def2-SVP def2-SVP/J NBO PAL2
% maxcore 2000
% output
    # printlevel mini
    print[ P_Basis ] 0
    print[ P_SCFInfo ] 1
    print[ P_SCFIterInfo ] 1
    print[ P_OrbEn ] 0
    print[ P_Cartesian ] 0
end
*xyz 0 1
 O        0.9904090000    -0.0563940000    -0.0356050000 
 C        2.1986770000    -0.0563010000    -0.0357880000 
 C        2.9787420000     1.0086020000     0.5553620000 
 C        3.6260350000     1.8933370000     1.0464880000 
 C        2.9787250000    -1.1212990000    -0.6267910000 
 C        3.6260110000    -2.0061010000    -1.1178060000 
 H        4.1906670000     2.6832680000     1.4849350000 
 H        4.1907430000    -2.7959930000    -1.5561940000 
*
