! RI PBE def2-SVP def2-SVP/J NBO PAL2
% maxcore 2000
% output
    # printlevel mini
    print[ P_Basis ] 0
    print[ P_SCFInfo ] 1
    print[ P_SCFIterInfo ] 1
    print[ P_OrbEn ] 0
    print[ P_Cartesian ] 0
end
*xyz 0 1
 O        1.0758550000    -0.2601050000    -0.0317750000 
 C        2.2694980000    -0.0978610000    -0.0556850000 
 C        2.9410150000     0.9690430000    -0.7963820000 
 C        4.2775200000     1.0685080000    -0.7620000000 
 C        5.0325660000     2.0520410000    -1.4337110000 
 C        5.7039380000     2.8780450000    -1.9949040000 
 H        2.9523860000    -0.7743050000     0.5038420000 
 H        2.3240860000     1.6593280000    -1.3609680000 
 H        4.8402780000     0.3430550000    -0.1755790000 
 H        6.2890570000     3.6130520000    -2.4961270000 
*
