! RI PBE def2-SVP def2-SVP/J NBO PAL2
% maxcore 2000
% output
    # printlevel mini
    print[ P_Basis ] 0
    print[ P_SCFInfo ] 1
    print[ P_SCFIterInfo ] 1
    print[ P_OrbEn ] 0
    print[ P_Cartesian ] 0
end
*xyz 0 1
 O        0.9854180000    -0.0546770000    -0.0917430000 
 C        2.3995550000    -0.1090610000    -0.0571720000 
 C        2.9017270000    -0.5592590000     1.2446340000 
 C        3.2850320000    -0.8816880000     2.3342110000 
 C        2.8644760000    -0.9782350000    -1.1362260000 
 C        3.2699200000    -1.6648690000    -2.0300290000 
 H        0.6927670000     0.3502060000     0.7306200000 
 H        2.8191640000     0.8928350000    -0.2416500000 
 H        3.6303310000    -1.1838880000     3.2949800000 
 H        3.6219100000    -2.2830640000    -2.8219230000 
*
