! RI PBE def2-SVP def2-SVP/J NBO PAL2
% maxcore 2000
% output
    # printlevel mini
    print[ P_Basis ] 0
    print[ P_SCFInfo ] 1
    print[ P_SCFIterInfo ] 1
    print[ P_OrbEn ] 0
    print[ P_Cartesian ] 0
end
*xyz 0 1
 O        1.5363350000    -0.5585570000     0.8017960000 
 C        2.5376840000     0.1310440000     0.0743690000 
 C        2.9214040000    -0.6867790000    -1.1052410000 
 C        4.1755040000    -1.0160790000    -1.4174620000 
 C        4.5472120000    -1.7784590000    -2.5906260000 
 C        5.8007970000    -2.1000270000    -2.9085400000 
 H        1.1617210000     0.0447130000     1.4476870000 
 H        3.4220830000     0.3273400000     0.6956170000 
 H        2.1533580000     1.1029190000    -0.2723710000 
 H        2.1010520000    -1.0112750000    -1.7421120000 
 H        4.9866120000    -0.7002250000    -0.7628420000 
 H        3.7327780000    -2.0992550000    -3.2366700000 
 H        6.6359780000    -1.7946810000    -2.2862180000 
 H        6.0318810000    -2.6761800000    -3.7959760000 
*
