! RI PBE def2-SVP def2-SVP/J NBO PAL2
% maxcore 2000
% output
    # printlevel mini
    print[ P_Basis ] 0
    print[ P_SCFInfo ] 1
    print[ P_SCFIterInfo ] 1
    print[ P_OrbEn ] 0
    print[ P_Cartesian ] 0
end
*xyz 0 1
 O        1.7163530000    -1.5341350000     0.0543230000 
 C        2.4221300000    -0.3121600000    -0.0447210000 
 C        2.9342780000     0.0511410000     1.3020920000 
 C        4.2042380000     0.3790020000     1.5446390000 
 C        4.6987270000     0.7754730000     2.8116270000 
 C        5.1520280000     1.1153270000     3.8732730000 
 H        1.2276250000    -1.6704220000    -0.7605320000 
 H        1.7540060000     0.4894540000    -0.3957530000 
 H        3.2562640000    -0.3834680000    -0.7559550000 
 H        2.2067890000     0.0552900000     2.1086110000 
 H        4.9282880000     0.3520960000     0.7327250000 
 H        5.5435630000     1.4129030000     4.8169710000 
*
