! RI PBE def2-SVP def2-SVP/J NBO PAL2
% maxcore 2000
% output
    # printlevel mini
    print[ P_Basis ] 0
    print[ P_SCFInfo ] 1
    print[ P_SCFIterInfo ] 1
    print[ P_OrbEn ] 0
    print[ P_Cartesian ] 0
end
*xyz 0 1
 O        0.8737860000    -0.0411680000    -0.1311660000 
 C        2.2783630000     0.0540880000    -0.1023880000 
 C        2.7313550000     0.7955320000     1.1176240000 
 C        1.8624560000     1.2726170000     2.0106100000 
 C        4.1654950000     0.9832040000     1.3037770000 
 C        5.1318190000     0.5582050000     0.4901660000 
 H        0.6212240000    -0.5146110000    -0.9257140000 
 H        2.6558470000     0.5789870000    -0.9924080000 
 H        2.7406720000    -0.9441370000    -0.0982760000 
 H        0.7965130000     1.1402980000     1.8844340000 
 H        2.2117660000     1.8066110000     2.8873080000 
 H        4.4412090000     1.5270380000     2.2040180000 
 H        4.9260510000     0.0107750000    -0.4227090000 
 H        6.1738440000     0.7479600000     0.7162220000 
*
