! RI PBE def2-SVP def2-SVP/J NBO PAL2
% maxcore 2000
% output
    # printlevel mini
    print[ P_Basis ] 0
    print[ P_SCFInfo ] 1
    print[ P_SCFIterInfo ] 1
    print[ P_OrbEn ] 0
    print[ P_Cartesian ] 0
end
*xyz 0 1
 O        0.9661360000    -0.0786430000     0.1177740000 
 C        2.3522810000     0.1538950000    -0.0338760000 
 C        2.8100090000    -0.3782790000    -1.3036820000 
 C        3.2059180000    -0.8149830000    -2.3547460000 
 C        3.6997090000    -1.3185780000    -3.5834330000 
 C        2.9578990000    -1.9410480000    -4.4991200000 
 H        0.6993600000     0.2854460000     0.9657820000 
 H        2.9261430000    -0.3238360000     0.7736820000 
 H        2.5807660000     1.2292820000    -0.0017320000 
 H        4.7621080000    -1.1716750000    -3.7631010000 
 H        1.8970290000    -2.1040220000    -4.3523420000 
 H        3.4023410000    -2.3011590000    -5.4185060000 
*
