! RI PBE def2-SVP def2-SVP/J NBO PAL2
% maxcore 2000
% output
    # printlevel mini
    print[ P_Basis ] 0
    print[ P_SCFInfo ] 1
    print[ P_SCFIterInfo ] 1
    print[ P_OrbEn ] 0
    print[ P_Cartesian ] 0
end
*xyz 0 1
 O        0.9315970000     0.1226040000     0.0018140000 
 C        2.3432430000     0.0979230000     0.0024720000 
 C        2.8138580000    -1.2729530000     0.0432770000 
 C        3.2356310000    -2.4032410000     0.0770930000 
 C        3.7094850000    -3.6805790000     0.1152380000 
 C        4.1292720000    -4.8100170000     0.1492100000 
 H        0.6538940000     1.0419650000    -0.0273120000 
 H        2.7540390000     0.6306760000     0.8725630000 
 H        2.7539860000     0.5778940000    -0.8978350000 
 H        4.4984060000    -5.8076840000     0.1792790000 
*
