! RI PBE def2-SVP def2-SVP/J NBO PAL2
% maxcore 2000
% output
    # printlevel mini
    print[ P_Basis ] 0
    print[ P_SCFInfo ] 1
    print[ P_SCFIterInfo ] 1
    print[ P_OrbEn ] 0
    print[ P_Cartesian ] 0
end
*xyz 0 1
 O        0.5757830000     0.0934030000     0.0322180000 
 C        1.9469450000    -0.2230370000     0.1640280000 
 C        2.7355330000     0.6949250000    -0.7401480000 
 C        4.2355680000     0.4258390000    -0.6763390000 
 C        5.0162760000     1.2960840000    -1.6041230000 
 C        5.9732980000     2.1373770000    -1.2392160000 
 H        0.0704110000    -0.4835840000     0.6087210000 
 H        2.1370110000    -1.2698360000    -0.1159220000 
 H        2.2811520000    -0.0945390000     1.2040510000 
 H        2.5305910000     1.7323850000    -0.4596290000 
 H        2.3743430000     0.5693630000    -1.7662710000 
 H        4.4172480000    -0.6258580000    -0.9355320000 
 H        4.6006830000     0.5640340000     0.3469760000 
 H        4.7533390000     1.2223310000    -2.6586350000 
 H        6.2647920000     2.2457110000    -0.1986920000 
 H        6.5011370000     2.7469010000    -1.9634960000 
*
