! RI PBE def2-SVP def2-SVP/J NBO PAL2
% maxcore 2000
% output
    # printlevel mini
    print[ P_Basis ] 0
    print[ P_SCFInfo ] 1
    print[ P_SCFIterInfo ] 1
    print[ P_OrbEn ] 0
    print[ P_Cartesian ] 0
end
*xyz 0 1
 O        1.6594660000     0.0647800000     0.8637390000 
 C        2.6830690000     0.1882120000     0.2442220000 
 C        3.1654590000    -0.8003500000    -0.7322100000 
 C        4.3080670000    -0.6264960000    -1.3999630000 
 C        4.7904600000    -1.6150620000    -2.3763880000 
 O        5.8140000000    -1.4915670000    -2.9959910000 
 H        3.3367970000     1.0752330000     0.3774270000 
 H        2.5448850000    -1.6802350000    -0.8832330000 
 H        4.9286410000     0.2533880000    -1.2489400000 
 H        4.1366660000    -2.5020230000    -2.5096740000 
*
