! RI PBE def2-SVP def2-SVP/J NBO PAL2
% maxcore 2000
% output
    # printlevel mini
    print[ P_Basis ] 0
    print[ P_SCFInfo ] 1
    print[ P_SCFIterInfo ] 1
    print[ P_OrbEn ] 0
    print[ P_Cartesian ] 0
end
*xyz 0 1
 O        0.8232010000    -0.0679220000    -0.2690430000 
 C        2.1288270000    -0.0119210000     0.1953400000 
 C        2.3593630000     1.0751900000     1.2082390000 
 C        1.3985480000     1.8461450000     1.6903310000 
 C        2.5357050000    -1.3420410000     0.7886620000 
 O        1.7860930000    -2.2805350000     0.7999690000 
 H        0.5203360000    -0.9746120000    -0.1063840000 
 H        2.8305430000     0.1590920000    -0.6440560000 
 H        3.3905950000     1.2057150000     1.5284670000 
 H        0.3744300000     1.7263850000     1.3581930000 
 H        1.6152400000     2.6208710000     2.4157290000 
 H        3.5571180000    -1.4064570000     1.2098440000 
*
