! RI PBE def2-SVP def2-SVP/J NBO PAL2
% maxcore 2000
% output
    # printlevel mini
    print[ P_Basis ] 0
    print[ P_SCFInfo ] 1
    print[ P_SCFIterInfo ] 1
    print[ P_OrbEn ] 0
    print[ P_Cartesian ] 0
end
*xyz 0 1
 O        1.5453700000     0.3620040000    -1.0268280000 
 C        2.5601500000     0.0935960000    -0.0836770000 
 C        2.9816380000    -1.3227440000    -0.2383690000 
 C        4.2335540000    -1.7694220000    -0.1522490000 
 C        4.5229000000    -3.1993850000    -0.2656100000 
 O        5.6237040000    -3.6821740000    -0.1789910000 
 H        1.1772660000     1.2293850000    -0.8437370000 
 H        2.1848400000     0.2255270000     0.9438290000 
 H        3.4221640000     0.7616450000    -0.2081800000 
 H        2.1720540000    -2.0309300000    -0.4101680000 
 H        5.0792420000    -1.1056260000     0.0034180000 
 H        3.6305180000    -3.8378650000    -0.4463280000 
*
