! RI PBE def2-SVP def2-SVP/J NBO PAL2
% maxcore 2000
% output
    # printlevel mini
    print[ P_Basis ] 0
    print[ P_SCFInfo ] 1
    print[ P_SCFIterInfo ] 1
    print[ P_OrbEn ] 0
    print[ P_Cartesian ] 0
end
*xyz 0 1
 O        1.0929300000    -0.0769220000    -0.0689480000 
 C        2.4964890000    -0.0587280000     0.0299190000 
 C        2.9136210000     0.8605710000     1.1276380000 
 C        2.0713520000     1.5538800000     1.8911790000 
 C        4.3586530000     0.9955850000     1.3658220000 
 O        5.2071360000     0.4155590000     0.7353870000 
 H        0.8475560000    -0.6713670000    -0.7806660000 
 H        2.9686100000     0.2790790000    -0.9032600000 
 H        2.9053700000    -1.0570490000     0.2397480000 
 H        0.9996800000     1.4882100000     1.7547690000 
 H        2.4518790000     2.2040460000     2.6723560000 
 H        4.6280340000     1.6885260000     2.1912570000 
*
