! RI PBE def2-SVP def2-SVP/J NBO PAL2
% maxcore 2000
% output
    # printlevel mini
    print[ P_Basis ] 0
    print[ P_SCFInfo ] 1
    print[ P_SCFIterInfo ] 1
    print[ P_OrbEn ] 0
    print[ P_Cartesian ] 0
end
*xyz 0 1
 O        1.0611920000    -0.0604460000    -0.1271160000 
 C        2.4704970000    -0.0316790000    -0.0231990000 
 C        2.9593240000     1.3171010000    -0.2461480000 
 C        3.3735700000     2.4319220000    -0.4241630000 
 C        3.9010820000     3.7697720000    -0.6541780000 
 O        4.1419200000     4.0644650000    -2.0138950000 
 H        0.7736330000    -0.9635720000     0.0299660000 
 H        2.9375200000    -0.6989120000    -0.7617760000 
 H        2.8029290000    -0.3634570000     0.9708040000 
 H        4.8118780000     3.8994460000    -0.0524490000 
 H        3.1791120000     4.5123500000    -0.3045860000 
 H        4.6315440000     3.3304090000    -2.3942580000 
*
