! RI PBE def2-SVP def2-SVP/J NBO PAL2
% maxcore 2000
% output
    # printlevel mini
    print[ P_Basis ] 0
    print[ P_SCFInfo ] 1
    print[ P_SCFIterInfo ] 1
    print[ P_OrbEn ] 0
    print[ P_Cartesian ] 0
end
*xyz 0 1
 O        0.9992280000     0.0065740000    -0.3648450000 
 C        2.3499390000     0.1138080000     0.0222350000 
 C        2.8407030000    -1.1687590000     0.4845420000 
 C        3.2956760000    -2.2134500000     0.8770960000 
 C        3.7726470000    -3.4902040000     1.3340600000 
 O        4.8926540000    -3.6952870000     1.7269900000 
 H        0.7066930000     0.8714930000    -0.6639010000 
 H        2.4847910000     0.8408110000     0.8363360000 
 H        2.9889330000     0.4394580000    -0.8115370000 
 H        3.0147260000    -4.2959530000     1.2983040000 
*
