! RI PBE def2-SVP def2-SVP/J NBO PAL2
% maxcore 2000
% output
    # printlevel mini
    print[ P_Basis ] 0
    print[ P_SCFInfo ] 1
    print[ P_SCFIterInfo ] 1
    print[ P_OrbEn ] 0
    print[ P_Cartesian ] 0
end
*xyz 0 1
 O        1.8595590000    -0.4794260000    -1.5572930000 
 C        1.7168640000     0.0851570000    -0.2641710000 
 C        2.8595470000    -0.4097160000     0.5956480000 
 C        4.2228470000     0.0070110000     0.0752690000 
 C        4.5701040000     1.4489030000     0.2822140000 
 O        3.8872750000     2.2520840000     0.8591680000 
 H        1.1928170000    -0.0996780000    -2.1329180000 
 H        0.7650450000    -0.2209420000     0.1896750000 
 H        1.7324750000     1.1804140000    -0.3091630000 
 H        2.8100410000    -1.5011670000     0.6437610000 
 H        2.7186230000    -0.0280880000     1.6103850000 
 H        4.3161510000    -0.2063560000    -0.9966090000 
 H        5.0281960000    -0.5709580000     0.5484080000 
 H        5.5538460000     1.7530610000    -0.1398630000 
*
