! RI PBE def2-SVP def2-SVP/J NBO PAL2
% maxcore 2000
% output
    # printlevel mini
    print[ P_Basis ] 0
    print[ P_SCFInfo ] 1
    print[ P_SCFIterInfo ] 1
    print[ P_OrbEn ] 0
    print[ P_Cartesian ] 0
end
*xyz 0 1
 O        2.6168600000     0.6653570000    -0.8632800000 
 C        2.1254970000    -0.1265890000    -0.1173310000 
 C        2.9111350000    -1.2295840000     0.5978210000 
 O        2.3176840000    -1.9802140000     1.3321820000 
 C        4.3248780000    -1.2947910000     0.3397320000 
 C        5.5026930000    -1.3267820000     0.1068460000 
 H        1.0477710000    -0.1507380000     0.1392600000 
 H        6.5488830000    -1.3627590000    -0.0937300000 
*
