! RI PBE def2-SVP def2-SVP/J NBO PAL2
% maxcore 2000
% output
    # printlevel mini
    print[ P_Basis ] 0
    print[ P_SCFInfo ] 1
    print[ P_SCFIterInfo ] 1
    print[ P_OrbEn ] 0
    print[ P_Cartesian ] 0
end
*xyz 0 1
 O        0.8486220000     0.0575390000     0.0738570000 
 C        2.1916700000     0.3767550000    -0.0788950000 
 C        3.0683150000    -0.8155260000     0.2430280000 
 O        2.5351230000    -1.8531860000     0.5784410000 
 C        4.5353980000    -0.7175360000     0.1515140000 
 C        5.1949530000     0.3793310000    -0.2058060000 
 H        0.8384720000    -0.8719090000     0.3546470000 
 H        2.4747230000     1.2085230000     0.5820440000 
 H        2.4030900000     0.6997530000    -1.1083010000 
 H        5.0592630000    -1.6340140000     0.4047030000 
 H        4.6864180000     1.3023670000    -0.4615910000 
 H        6.2773720000     0.3929020000    -0.2556500000 
*
