! RI PBE def2-SVP def2-SVP/J NBO PAL2
% maxcore 2000
% output
    # printlevel mini
    print[ P_Basis ] 0
    print[ P_SCFInfo ] 1
    print[ P_SCFIterInfo ] 1
    print[ P_OrbEn ] 0
    print[ P_Cartesian ] 0
end
*xyz 0 1
 O        2.2907890000     0.7103750000     0.6626740000 
 C        1.9927010000     0.4676110000    -0.4683660000 
 O        2.8334220000     0.3553450000    -1.4993450000 
 C        4.2039740000     0.5266570000    -1.2035020000 
 C        5.0510170000    -0.6932080000    -1.1135500000 
 C        5.1328010000     0.2125210000    -2.3145980000 
 H        0.9657750000     0.3104390000    -0.8294510000 
 H        4.3989380000     1.3588650000    -0.5401740000 
 H        4.5534310000    -1.6449470000    -1.2495920000 
 H        5.8611940000    -0.6966100000    -0.3957870000 
 H        4.6881790000    -0.1477440000    -3.2335510000 
 H        6.0044800000     0.8412940000    -2.4422800000 
*
