! RI PBE def2-SVP def2-SVP/J NBO PAL2
% maxcore 2000
% output
    # printlevel mini
    print[ P_Basis ] 0
    print[ P_SCFInfo ] 1
    print[ P_SCFIterInfo ] 1
    print[ P_OrbEn ] 0
    print[ P_Cartesian ] 0
end
*xyz 0 1
 O        2.0455670000     0.0839250000    -1.3115970000 
 C        2.2129670000    -0.0793490000     0.0174070000 
 O        1.6903900000    -0.9786530000     0.6213960000 
 C        3.0847970000     0.9430100000     0.6221740000 
 C        4.2542100000     1.5025080000    -0.1515290000 
 C        3.0721210000     2.3604160000     0.1025220000 
 H        1.4638590000    -0.6330060000    -1.5978920000 
 H        3.2082550000     0.7981000000     1.6864750000 
 H        4.3998830000     1.1272090000    -1.1554160000 
 H        5.1603060000     1.6823960000     0.4123610000 
 H        2.4118360000     2.5701480000    -0.7280670000 
 H        3.1464290000     3.1439960000     0.8453770000 
*
