! RI PBE def2-SVP def2-SVP/J NBO PAL2
% maxcore 2000
% output
    # printlevel mini
    print[ P_Basis ] 0
    print[ P_SCFInfo ] 1
    print[ P_SCFIterInfo ] 1
    print[ P_OrbEn ] 0
    print[ P_Cartesian ] 0
end
*xyz 0 1
 O        3.4792780000     2.0927860000     0.4872130000 
 C        2.6985670000     1.2661340000     0.8524710000 
 O        2.9647530000    -0.0125060000     1.1352670000 
 C        4.3307080000    -0.4321770000     1.0017190000 
 C        4.8094090000    -0.9983150000     2.2476750000 
 C        5.2258470000    -1.4731650000     3.2666750000 
 H        1.6247260000     1.4412480000     1.0084640000 
 H        4.9407000000     0.4224170000     0.7012890000 
 H        4.3597070000    -1.1817930000     0.2071000000 
 H        5.5926040000    -1.8917180000     4.1742380000 
*
