! RI PBE def2-SVP def2-SVP/J NBO PAL2
% maxcore 2000
% output
    # printlevel mini
    print[ P_Basis ] 0
    print[ P_SCFInfo ] 1
    print[ P_SCFIterInfo ] 1
    print[ P_OrbEn ] 0
    print[ P_Cartesian ] 0
end
*xyz 0 1
 O        1.0759830000     0.0220010000     0.0046280000 
 C        2.3747270000     0.1270590000     0.3363120000 
 O        2.7966520000     1.0097990000     1.0304270000 
 C        3.1802650000    -1.0058350000    -0.2422410000 
 C        4.6506140000    -0.7598050000    -0.2099810000 
 C        5.4610270000    -0.9760900000    -1.2345280000 
 H        0.6210780000     0.7601200000     0.4344310000 
 H        2.8233770000    -1.2228120000    -1.2512770000 
 H        2.9257720000    -1.8866780000     0.3636830000 
 H        5.0463400000    -0.3802780000     0.7273360000 
 H        5.0916340000    -1.3409180000    -2.1881650000 
 H        6.5265420000    -0.7953440000    -1.1575230000 
*
