! RI PBE def2-SVP def2-SVP/J NBO PAL2
% maxcore 2000
% output
    # printlevel mini
    print[ P_Basis ] 0
    print[ P_SCFInfo ] 1
    print[ P_SCFIterInfo ] 1
    print[ P_OrbEn ] 0
    print[ P_Cartesian ] 0
end
*xyz 0 1
 O        0.8980140000     0.1703280000     0.3612270000 
 C        2.1999470000    -0.0117310000     0.0758100000 
 O        2.5970590000    -0.8461920000    -0.6812320000 
 C        3.0359320000     0.9844530000     0.8500960000 
 C        4.4604340000     0.8779760000     0.6168760000 
 C        5.6431320000     0.8075200000     0.4387250000 
 H        0.4067140000    -0.4849280000    -0.1536700000 
 H        2.8049440000     0.8518370000     1.9125090000 
 H        2.6739770000     1.9861640000     0.5947880000 
 H        6.6919470000     0.7357830000     0.2727710000 
*
