! RI PBE def2-SVP def2-SVP/J NBO PAL2
% maxcore 2000
% output
    # printlevel mini
    print[ P_Basis ] 0
    print[ P_SCFInfo ] 1
    print[ P_SCFIterInfo ] 1
    print[ P_OrbEn ] 0
    print[ P_Cartesian ] 0
end
*xyz 0 1
 C        0.3887040000     1.4898050000     0.4361570000 
 C        0.8622030000     0.3383470000    -0.3710440000 
 O        0.8878050000    -0.9201430000     0.2523700000 
 N       -0.4009730000    -1.2859900000     0.5998360000 
 C       -1.2164330000    -0.3994630000     0.1800510000 
 C       -0.5818110000     0.7562360000    -0.4676380000 
 H        0.7035500000     2.4706490000     0.1042830000 
 H        0.2813470000     1.3650310000     1.5064830000 
 H        1.6011950000     0.4409290000    -1.1546990000 
 H       -2.2770270000    -0.5567640000     0.3266240000 
 H       -1.0380900000     1.2528530000    -1.3136310000 
*
