! RI PBE def2-SVP def2-SVP/J NBO PAL2
% maxcore 2000
% output
    # printlevel mini
    print[ P_Basis ] 0
    print[ P_SCFInfo ] 1
    print[ P_SCFIterInfo ] 1
    print[ P_OrbEn ] 0
    print[ P_Cartesian ] 0
end
*xyz 0 1
 C        0.4016860000     1.4320580000     0.2627650000 
 C        1.3229440000     0.3085590000    -0.1509470000 
 O        0.9565760000    -0.9203800000     0.4590320000 
 N       -0.3616890000    -1.2935560000     0.3468440000 
 C       -1.2203550000    -0.4118000000     0.0263280000 
 C       -0.9997500000     1.0518780000    -0.1820110000 
 H        0.7233440000     2.3776880000    -0.1791370000 
 H        0.4413690000     1.5439350000     1.3496190000 
 H        2.3550530000     0.4739520000     0.1603560000 
 H        1.3015520000     0.1812800000    -1.2423330000 
 H       -2.2300810000    -0.8082550000    -0.0470440000 
 H       -1.7659530000     1.6021340000     0.3725240000 
 H       -1.1596940000     1.2956080000    -1.2388750000 
*
