! RI PBE def2-SVP def2-SVP/J NBO PAL2
% maxcore 2000
% output
    # printlevel mini
    print[ P_Basis ] 0
    print[ P_SCFInfo ] 1
    print[ P_SCFIterInfo ] 1
    print[ P_OrbEn ] 0
    print[ P_Cartesian ] 0
end
*xyz 0 1
 C       -0.2873260000     0.7681290000     0.1239120000 
 N       -0.4026170000    -0.6514620000    -0.1865490000 
 C        0.9158600000    -0.0860810000     0.0765840000 
 C        1.5709570000    -0.5569970000     1.3220140000 
 C        2.8486830000    -1.2601720000     1.3008100000 
 O        2.7728990000     0.1024910000     1.6885630000 
 H       -0.6997550000     1.0596630000     1.0842580000 
 H       -0.4220040000     1.4943460000    -0.6710540000 
 H       -0.5397200000    -0.7973700000    -1.1795970000 
 H        1.5923980000     0.0652140000    -0.7612260000 
 H        0.8860610000    -0.7558890000     2.1453670000 
 H        3.3391300000    -1.4442730000     0.3473030000 
 H        3.0931340000    -1.9591890000     2.0967050000 
*
