! RI PBE def2-SVP def2-SVP/J NBO PAL2
% maxcore 2000
% output
    # printlevel mini
    print[ P_Basis ] 0
    print[ P_SCFInfo ] 1
    print[ P_SCFIterInfo ] 1
    print[ P_OrbEn ] 0
    print[ P_Cartesian ] 0
end
*xyz 0 1
 C        0.5932250000     1.3265020000    -0.0479990000 
 N       -0.7919800000     1.3647050000    -0.5150480000 
 C       -1.4364420000     0.1429940000    -0.0349650000 
 C       -0.3271960000    -0.8713560000     0.1131210000 
 O        0.5340730000    -0.9149730000    -1.0191850000 
 C        0.9311250000    -0.1376240000     0.1050400000 
 H        0.6879160000     1.8154070000     0.9297630000 
 H        1.2458060000     1.8534500000    -0.7476080000 
 H       -0.7805480000     1.3339780000    -1.5248530000 
 H       -2.2231170000    -0.1692940000    -0.7253300000 
 H       -1.8991830000     0.3068580000     0.9463780000 
 H       -0.4692570000    -1.8081890000     0.6433890000 
 H        1.8214680000    -0.4724580000     0.6286770000 
*
