! RI PBE def2-SVP def2-SVP/J NBO PAL2
% maxcore 2000
% output
    # printlevel mini
    print[ P_Basis ] 0
    print[ P_SCFInfo ] 1
    print[ P_SCFIterInfo ] 1
    print[ P_OrbEn ] 0
    print[ P_Cartesian ] 0
end
*xyz 0 1
 C        0.2629490000    -1.3782370000     0.0252480000 
 O       -1.0660110000    -0.8212010000     0.0226160000 
 N       -1.3008430000     0.5250320000     0.0070070000 
 C       -0.3091930000     1.3248940000    -0.0066510000 
 C        1.0858660000     0.9198310000    -0.0072010000 
 C        1.3614660000    -0.3767700000     0.0080380000 
 H        0.3323880000    -2.0394150000    -0.8487420000 
 H        0.3388450000    -2.0162020000     0.9158190000 
 H       -0.5885200000     2.3727360000    -0.0184960000 
 H        1.8601820000     1.6764550000    -0.0199180000 
 H        2.3785810000    -0.7542230000     0.0086680000 
*
