! RI PBE def2-SVP def2-SVP/J NBO PAL2
% maxcore 2000
% output
    # printlevel mini
    print[ P_Basis ] 0
    print[ P_SCFInfo ] 1
    print[ P_SCFIterInfo ] 1
    print[ P_OrbEn ] 0
    print[ P_Cartesian ] 0
end
*xyz 0 1
 C        0.9989830000     0.0333620000    -0.0770330000 
 C        2.4698090000     0.1812830000    -0.0728010000 
 C        3.3060750000     1.2495450000    -0.0720060000 
 C        4.5918330000     0.6604020000    -0.0671350000 
 N        4.5332180000    -0.6398870000    -0.0651870000 
 O        3.1924440000    -0.9459300000    -0.0687630000 
 H        0.5227490000     1.0128600000    -0.0800520000 
 H        0.6622510000    -0.5166910000     0.8050240000 
 H        0.6676120000    -0.5195210000    -0.9593500000 
 H        3.0442360000     2.2941020000    -0.0745090000 
 H        5.5598890000     1.1406650000    -0.0649780000 
*
