! RI PBE def2-SVP def2-SVP/J NBO PAL2
% maxcore 2000
% output
    # printlevel mini
    print[ P_Basis ] 0
    print[ P_SCFInfo ] 1
    print[ P_SCFIterInfo ] 1
    print[ P_OrbEn ] 0
    print[ P_Cartesian ] 0
end
*xyz 0 1
 C        1.0510560000    -0.0469100000     0.0970860000 
 C        2.5567170000    -0.0718410000    -0.0353780000 
 C        3.0970040000    -1.2991300000    -0.7695770000 
 C        3.4885000000    -0.6686490000    -2.0658630000 
 N        3.4206230000     0.5977630000    -2.0718920000 
 O        2.9770270000     1.0499940000    -0.8527890000 
 H        0.7120320000    -0.8523240000     0.7539310000 
 H        0.5801470000    -0.1736570000    -0.8808630000 
 H        0.7200140000     0.9040660000     0.5170690000 
 H        3.0309650000     0.0665380000     0.9387800000 
 H        2.3421130000    -2.0802550000    -0.8928650000 
 H        3.9632440000    -1.7537720000    -0.2791040000 
 H        3.8322490000    -1.1813330000    -2.9549430000 
*
