! RI PBE def2-SVP def2-SVP/J NBO PAL2
% maxcore 2000
% output
    # printlevel mini
    print[ P_Basis ] 0
    print[ P_SCFInfo ] 1
    print[ P_SCFIterInfo ] 1
    print[ P_OrbEn ] 0
    print[ P_Cartesian ] 0
end
*xyz 0 1
 C        0.9180340000    -0.0132940000     0.0802050000 
 C        2.4141040000     0.0829980000    -0.0973230000 
 C        3.1569440000     1.1725490000     0.7127960000 
 C        3.9118430000     0.0139700000     1.3764130000 
 O        4.7838710000    -0.0947460000     2.1918800000 
 N        3.2005150000    -0.8971180000     0.6515430000 
 H        0.4207820000     0.8272370000    -0.4101990000 
 H        0.6539580000    -0.0025550000     1.1405230000 
 H        0.5261540000    -0.9338650000    -0.3600630000 
 H        2.6763140000     0.0975250000    -1.1606350000 
 H        2.5306640000     1.7453960000     1.3973540000 
 H        3.7935110000     1.8453850000     0.1389650000 
 H        3.2728160000    -1.9008930000     0.5900420000 
*
