! RI PBE def2-SVP def2-SVP/J NBO PAL2
% maxcore 2000
% output
    # printlevel mini
    print[ P_Basis ] 0
    print[ P_SCFInfo ] 1
    print[ P_SCFIterInfo ] 1
    print[ P_OrbEn ] 0
    print[ P_Cartesian ] 0
end
*xyz 0 1
 C        0.8388010000     0.0429570000    -0.0530260000 
 C        2.3347950000    -0.0409760000     0.0247010000 
 C        3.1482800000    -0.8452260000    -0.9807970000 
 N        2.5902060000    -1.5446710000    -2.0983880000 
 C        3.1992980000     0.6465760000    -0.9751880000 
 O        4.3219950000     1.3166790000    -0.4998210000 
 H        0.3670070000    -0.7893000000     0.4770670000 
 H        0.4880360000     0.0116980000    -1.0871090000 
 H        0.4716560000     0.9714640000     0.3916560000 
 H        2.7531780000    -0.0462670000     1.0265060000 
 H        4.0275100000    -1.3247040000    -0.5601300000 
 H        2.0965860000    -0.9246430000    -2.7249830000 
 H        1.9447270000    -2.2678480000    -1.8066390000 
 H        2.6803580000     1.1468690000    -1.7957350000 
 H        5.0349660000     1.1962820000    -1.1334050000 
*
