! RI PBE def2-SVP def2-SVP/J NBO PAL2
% maxcore 2000
% output
    # printlevel mini
    print[ P_Basis ] 0
    print[ P_SCFInfo ] 1
    print[ P_SCFIterInfo ] 1
    print[ P_OrbEn ] 0
    print[ P_Cartesian ] 0
end
*xyz 0 1
 C        1.0020290000    -0.0023800000     0.2236030000 
 C        2.5012300000     0.0574930000     0.0477220000 
 C        3.2918270000     1.1142140000     0.8583690000 
 N        3.9946880000     0.0085540000     1.4933120000 
 C        3.3163600000    -0.9796920000     0.8421150000 
 O        3.3567550000    -2.1767350000     0.9029970000 
 H        0.5097440000     0.8345840000    -0.2772940000 
 H        0.7293400000     0.0252380000     1.2817980000 
 H        0.6083640000    -0.9293310000    -0.1979960000 
 H        2.7793520000     0.0472350000    -1.0089530000 
 H        2.6767470000     1.7038370000     1.5439500000 
 H        3.9325990000     1.7774350000     0.2721880000 
 H        4.7001740000    -0.0268610000     2.2121000000 
*
