! RI PBE def2-SVP def2-SVP/J NBO PAL2
% maxcore 2000
% output
    # printlevel mini
    print[ P_Basis ] 0
    print[ P_SCFInfo ] 1
    print[ P_SCFIterInfo ] 1
    print[ P_OrbEn ] 0
    print[ P_Cartesian ] 0
end
*xyz 0 1
 C        0.9347230000     0.0013330000    -0.0750640000 
 C        2.4042920000     0.1280710000    -0.0717500000 
 C        3.2755120000     1.1612680000    -0.0724010000 
 N        4.5705280000     0.6767910000    -0.0678370000 
 C        4.4255130000    -0.5986060000    -0.0647650000 
 O        3.1451650000    -1.0175920000    -0.0667710000 
 H        0.4815100000     0.9925300000    -0.0788220000 
 H        0.5800400000    -0.5360520000     0.8085580000 
 H        0.5844260000    -0.5407410000    -0.9575730000 
 H        3.0617700000     2.2183400000    -0.0758050000 
 H        5.1885300000    -1.3614430000    -0.0607810000 
*
