! RI PBE def2-SVP def2-SVP/J NBO PAL2
% maxcore 2000
% output
    # printlevel mini
    print[ P_Basis ] 0
    print[ P_SCFInfo ] 1
    print[ P_SCFIterInfo ] 1
    print[ P_OrbEn ] 0
    print[ P_Cartesian ] 0
end
*xyz 0 1
 C        0.9835960000    -0.6929640000     0.0513860000 
 C        2.3542170000    -0.0845840000    -0.0105990000 
 C        3.0195150000     0.2055080000     1.3122140000 
 N        3.2282680000    -1.0146230000     2.0789140000 
 C        3.1840960000    -0.2673100000    -1.1957910000 
 O        2.5095800000     0.9632510000    -0.9640940000 
 H        1.0205640000    -1.6840080000     0.5105910000 
 H        0.5657330000    -0.7947700000    -0.9507130000 
 H        0.3105330000    -0.0627780000     0.6405210000 
 H        2.4173840000     0.9655130000     1.8361130000 
 H        3.9915460000     0.6591470000     1.1066560000 
 H        2.3565650000    -1.3451080000     2.4737810000 
 H        3.8486430000    -0.8368130000     2.8579060000 
 H        2.8061850000    -0.8513660000    -2.0319140000 
 H        4.2668730000    -0.2309960000    -1.1020820000 
*
