! RI PBE def2-SVP def2-SVP/J NBO PAL2
% maxcore 2000
% output
    # printlevel mini
    print[ P_Basis ] 0
    print[ P_SCFInfo ] 1
    print[ P_SCFIterInfo ] 1
    print[ P_OrbEn ] 0
    print[ P_Cartesian ] 0
end
*xyz 0 1
 C        1.0257360000     0.0726290000    -0.0291120000 
 C        2.5071280000     0.1196820000    -0.0255190000 
 C        3.3419770000     1.1816820000    -0.0262490000 
 O        4.6239400000     0.7217430000    -0.0218460000 
 C        4.4919260000    -0.6131030000    -0.0185310000 
 N        3.2779130000    -1.0338050000    -0.0206980000 
 H        0.6006630000     1.0769490000    -0.0327130000 
 H        0.6555220000    -0.4575970000     0.8515070000 
 H        0.6599300000    -0.4620400000    -0.9088870000 
 H        3.2078620000     2.2497120000    -0.0294110000 
 H        5.4007040000    -1.1951510000    -0.0147400000 
*
