! RI PBE def2-SVP def2-SVP/J NBO PAL2
% maxcore 2000
% output
    # printlevel mini
    print[ P_Basis ] 0
    print[ P_SCFInfo ] 1
    print[ P_SCFIterInfo ] 1
    print[ P_OrbEn ] 0
    print[ P_Cartesian ] 0
end
*xyz 0 1
 C        1.0855280000     0.0532730000    -0.1399270000 
 C        2.4105220000     0.0352440000    -0.0157000000 
 C        3.3562600000    -1.1260870000    -0.0320550000 
 O        4.6557100000    -0.5379220000     0.1453160000 
 N        4.5356040000     0.8212870000     0.2581540000 
 C        3.3066810000     1.1597270000     0.1722760000 
 H        0.5102660000    -0.8543000000    -0.2775570000 
 H        0.5369820000     0.9866750000    -0.1067010000 
 H        3.3514880000    -1.6695670000    -0.9809890000 
 H        3.1835280000    -1.8312800000     0.7857030000 
 H        3.0353310000     2.2042590000     0.2419810000 
*
