! RI PBE def2-SVP def2-SVP/J NBO PAL2
% maxcore 2000
% output
    # printlevel mini
    print[ P_Basis ] 0
    print[ P_SCFInfo ] 1
    print[ P_SCFIterInfo ] 1
    print[ P_OrbEn ] 0
    print[ P_Cartesian ] 0
end
*xyz 0 1
 C        0.9621200000    -0.0140220000    -0.2012890000 
 C        2.4488010000     0.0951140000    -0.0461130000 
 N        3.3336680000    -0.8121580000    -0.7758240000 
 C        3.2933470000     0.6036890000    -1.1408840000 
 C        4.5538300000     1.3765530000    -0.8804620000 
 O        4.3262810000     2.7603920000    -0.7062330000 
 H        0.5669410000    -0.8577530000     0.3713420000 
 H        0.6879210000    -0.1590530000    -1.2505060000 
 H        0.4649370000     0.8923210000     0.1537010000 
 H        2.7924950000     0.2909180000     0.9671490000 
 H        2.7967220000    -1.3632780000    -1.4376750000 
 H        2.7719110000     0.8649250000    -2.0623040000 
 H        5.2776370000     1.1916600000    -1.6865900000 
 H        5.0033030000     1.0147130000     0.0462840000 
 H        4.0283860000     3.1289800000    -1.5411960000 
*
