! RI PBE def2-SVP def2-SVP/J NBO PAL2
% maxcore 2000
% output
    # printlevel mini
    print[ P_Basis ] 0
    print[ P_SCFInfo ] 1
    print[ P_SCFIterInfo ] 1
    print[ P_OrbEn ] 0
    print[ P_Cartesian ] 0
end
*xyz 0 1
 C        0.9213520000    -0.0442410000    -0.0117850000 
 C        2.4252570000    -0.0908060000    -0.0140980000 
 N        3.1396940000     0.9694330000     0.7465550000 
 C        4.1045920000    -0.0427480000     1.2429530000 
 C        3.1626050000    -1.1705460000     0.7993770000 
 O        3.6548220000    -2.3219560000     0.1829520000 
 H        0.5548780000     0.8665940000    -0.4923310000 
 H        0.5310680000    -0.0723790000     1.0104240000 
 H        0.5103190000    -0.8998770000    -0.5531640000 
 H        2.7967080000    -0.0837180000    -1.0490950000 
 H        2.5521200000     1.2860660000     1.5105180000 
 H        4.3704010000     0.0225720000     2.2999420000 
 H        5.0268860000    -0.0143930000     0.6503020000 
 H        2.5399760000    -1.5142620000     1.6308400000 
 H        4.2245220000    -2.0559460000    -0.5447990000 
*
