! RI PBE def2-SVP def2-SVP/J NBO PAL2
% maxcore 2000
% output
    # printlevel mini
    print[ P_Basis ] 0
    print[ P_SCFInfo ] 1
    print[ P_SCFIterInfo ] 1
    print[ P_OrbEn ] 0
    print[ P_Cartesian ] 0
end
*xyz 0 1
 C        0.9479140000    -0.0380730000     0.1099580000 
 C        2.4176270000     0.0366370000    -0.0712240000 
 N        3.1222070000    -1.0047390000    -0.2518060000 
 O        4.4515980000    -0.6781700000    -0.3929060000 
 C        4.6173910000     0.7500670000    -0.2912210000 
 C        3.2184750000     1.3063300000    -0.0625480000 
 H        0.6144180000    -1.0739020000     0.0623050000 
 H        0.4309520000     0.5373290000    -0.6641640000 
 H        0.6530690000     0.3858100000     1.0748410000 
 H        5.0728600000     1.1041660000    -1.2187760000 
 H        5.2999370000     0.9527120000     0.5371460000 
 H        2.8862420000     1.9881090000    -0.8506100000 
 H        3.1096020000     1.8350340000     0.8887240000 
*
