! RI PBE def2-SVP def2-SVP/J NBO PAL2
% maxcore 2000
% output
    # printlevel mini
    print[ P_Basis ] 0
    print[ P_SCFInfo ] 1
    print[ P_SCFIterInfo ] 1
    print[ P_OrbEn ] 0
    print[ P_Cartesian ] 0
end
*xyz 0 1
 C        1.0668210000     0.0398810000    -0.1237650000 
 C        2.5439090000     0.2187940000     0.0223290000 
 O        3.3738290000    -0.6782340000    -0.7140990000 
 C        3.3933760000     0.6981430000    -1.0601590000 
 C        4.6840740000     1.4247490000    -0.8168180000 
 N        4.4724440000     2.8624670000    -0.9043170000 
 H        0.7228930000    -0.8221000000     0.4534390000 
 H        0.7994210000    -0.1201740000    -1.1698110000 
 H        0.5388190000     0.9244140000     0.2417270000 
 H        2.8997780000     0.4013500000     1.0364810000 
 H        2.9079900000     0.9214120000    -2.0129760000 
 H        5.4395650000     1.0359590000    -1.5179690000 
 H        5.0318000000     1.1802410000     0.1903730000 
 H        4.2580410000     3.1322800000    -1.8569880000 
 H        5.3149400000     3.3594390000    -0.6457580000 
*
