! RI PBE def2-SVP def2-SVP/J NBO PAL2
% maxcore 2000
% output
    # printlevel mini
    print[ P_Basis ] 0
    print[ P_SCFInfo ] 1
    print[ P_SCFIterInfo ] 1
    print[ P_OrbEn ] 0
    print[ P_Cartesian ] 0
end
*xyz 0 1
 C        0.9379650000    -0.0314290000    -0.0105390000 
 C        2.4221410000     0.0851690000     0.1070870000 
 O        3.2085580000    -0.7262970000    -0.7492460000 
 C        3.2350620000     0.6716260000    -0.9676920000 
 C        4.4716290000     1.3535850000    -0.6699930000 
 N        5.4447230000     1.9217190000    -0.4417770000 
 H        0.5907030000    -0.9333240000     0.4985020000 
 H        0.6337960000    -0.0876320000    -1.0568140000 
 H        0.4513590000     0.8287780000     0.4548580000 
 H        2.8261180000     0.1664220000     1.1148600000 
 H        2.7422380000     1.0142830000    -1.8745440000 
*
