! RI PBE def2-SVP def2-SVP/J NBO PAL2
% maxcore 2000
% output
    # printlevel mini
    print[ P_Basis ] 0
    print[ P_SCFInfo ] 1
    print[ P_SCFIterInfo ] 1
    print[ P_OrbEn ] 0
    print[ P_Cartesian ] 0
end
*xyz 0 1
 C        1.0114170000     0.1556410000     0.1407280000 
 C        2.5039630000     0.0160360000     0.0543770000 
 O        3.2118440000     1.0397370000     0.7765200000 
 C        4.1273670000     0.0763610000     1.3134030000 
 C        3.2306890000    -1.0785110000     0.8689970000 
 N        3.8690720000    -2.2117050000     0.2647260000 
 H        0.6807420000     1.0885040000    -0.3220610000 
 H        0.6848590000     0.1556210000     1.1832660000 
 H        0.5227240000    -0.6722540000    -0.3812440000 
 H        2.8309970000     0.0002510000    -0.9981350000 
 H        4.3004790000     0.2156800000     2.3832980000 
 H        5.0909330000     0.0905440000     0.7859500000 
 H        2.5971100000    -1.4290090000     1.6883220000 
 H        4.3760740000    -1.9479240000    -0.5714570000 
 H        3.2032410000    -2.9300720000     0.0126870000 
*
