! RI PBE def2-SVP def2-SVP/J NBO PAL2
% maxcore 2000
% output
    # printlevel mini
    print[ P_Basis ] 0
    print[ P_SCFInfo ] 1
    print[ P_SCFIterInfo ] 1
    print[ P_OrbEn ] 0
    print[ P_Cartesian ] 0
end
*xyz 0 1
 C        0.9345280000     0.0104030000    -0.0902740000 
 C        2.4276910000    -0.0399840000     0.0326280000 
 O        2.9096800000     0.0552420000     1.3435740000 
 C        3.2467620000    -0.8635100000    -0.9283930000 
 C        3.3092850000     0.6339960000    -0.9811010000 
 N        4.5277080000     1.3013020000    -0.6352580000 
 H        0.4671470000    -0.8625390000     0.3787420000 
 H        0.6304530000     0.0232370000    -1.1393090000 
 H        0.5417230000     0.9078890000     0.3944860000 
 H        2.7262590000    -0.7751970000     1.7921140000 
 H        2.7488580000    -1.4022040000    -1.7260270000 
 H        4.1162700000    -1.3626670000    -0.5143090000 
 H        2.7955010000     1.1030790000    -1.8146610000 
 H        4.9290540000     0.8592500000     0.1840980000 
 H        4.3248900000     2.2567140000    -0.3620200000 
*
