! RI PBE def2-SVP def2-SVP/J NBO PAL2
% maxcore 2000
% output
    # printlevel mini
    print[ P_Basis ] 0
    print[ P_SCFInfo ] 1
    print[ P_SCFIterInfo ] 1
    print[ P_OrbEn ] 0
    print[ P_Cartesian ] 0
end
*xyz 0 1
 C        0.8649480000    -0.1040160000     0.0355890000 
 C        2.3471560000    -0.2064070000     0.0082190000 
 C        3.1095730000    -0.0122500000    -1.0698220000 
 C        4.5480040000    -0.1233990000    -1.0455770000 
 N        5.2199200000     0.0740720000    -2.1093040000 
 O        6.5739190000    -0.0767340000    -1.8874750000 
 H        0.5373100000     0.6560990000     0.7525070000 
 H        0.4123050000    -1.0478190000     0.3572150000 
 H        0.4611850000     0.1531160000    -0.9451010000 
 H        2.8356230000    -0.4602530000     0.9479850000 
 H        2.6622760000     0.2426080000    -2.0269670000 
 H        5.0536230000    -0.3772190000    -0.1113790000 
 H        6.9571480000     0.0956830000    -2.7519110000 
*
