! RI PBE def2-SVP def2-SVP/J NBO PAL2
% maxcore 2000
% output
    # printlevel mini
    print[ P_Basis ] 0
    print[ P_SCFInfo ] 1
    print[ P_SCFIterInfo ] 1
    print[ P_OrbEn ] 0
    print[ P_Cartesian ] 0
end
*xyz 0 1
 C        1.0114420000     0.1705870000    -0.0109890000 
 C        2.4954870000    -0.0273020000    -0.0594190000 
 C        3.1044590000    -1.0453350000     0.5480890000 
 C        3.2270800000     0.9876900000    -0.8282600000 
 N        4.4893760000     0.9575400000    -0.9632310000 
 O        4.9464170000     2.0110250000    -1.7241710000 
 H        0.5275220000    -0.6125770000     0.5724660000 
 H        0.5811240000     0.1646100000    -1.0176420000 
 H        0.7583020000     1.1376460000     0.4354170000 
 H        2.5361580000    -1.7784500000     1.1082500000 
 H        4.1794290000    -1.1663620000     0.4981630000 
 H        2.6554740000     1.7923520000    -1.2964540000 
 H        5.8970420000     1.8692860000    -1.7463190000 
*
