! RI PBE def2-SVP def2-SVP/J NBO PAL2
% maxcore 2000
% output
    # printlevel mini
    print[ P_Basis ] 0
    print[ P_SCFInfo ] 1
    print[ P_SCFIterInfo ] 1
    print[ P_OrbEn ] 0
    print[ P_Cartesian ] 0
end
*xyz 0 1
 C        0.9476360000    -0.0752330000    -0.0154430000 
 C        2.4310360000     0.0835990000    -0.0041870000 
 C        3.0658730000     1.0421760000     0.6657410000 
 C        3.1720930000    -0.8722440000    -0.8921870000 
 N        4.4410080000    -1.1818110000    -0.5186690000 
 O        2.6617120000    -1.3248600000    -1.8974260000 
 H        0.4646170000     0.6954950000     0.5854230000 
 H        0.6568740000    -1.0572750000     0.3684030000 
 H        0.5783140000    -0.0237040000    -1.0417290000 
 H        2.5194040000     1.7589280000     1.2689330000 
 H        4.1401920000     1.1731890000     0.6057770000 
 H        4.7678560000    -0.9872850000     0.4093940000 
 H        4.9303760000    -1.8645650000    -1.0713300000 
*
