! RI PBE def2-SVP def2-SVP/J NBO PAL2
% maxcore 2000
% output
    # printlevel mini
    print[ P_Basis ] 0
    print[ P_SCFInfo ] 1
    print[ P_SCFIterInfo ] 1
    print[ P_OrbEn ] 0
    print[ P_Cartesian ] 0
end
*xyz 0 1
 C        0.8752510000    -0.0879260000     0.1918400000 
 C        2.3898500000    -0.0952990000     0.0215160000 
 C        3.0987650000    -0.2231580000     1.3647900000 
 C        2.7868290000    -1.2664010000    -0.8655630000 
 N        3.4191690000    -0.9433370000    -2.0210890000 
 O        2.5524380000    -2.4166590000    -0.5579340000 
 H        0.5702750000     0.7262680000     0.8533660000 
 H        0.5473250000    -1.0329810000     0.6286460000 
 H        0.3622320000     0.0393410000    -0.7643890000 
 H        2.6993860000     0.8411750000    -0.4571180000 
 H        2.8328220000    -1.1717360000     1.8348240000 
 H        2.8028190000     0.5908220000     2.0306630000 
 H        4.1851410000    -0.1936860000     1.2521920000 
 H        3.6124250000     0.0069100000    -2.2749260000 
 H        3.7004820000    -1.6854330000    -2.6386210000 
*
