! RI PBE def2-SVP def2-SVP/J NBO PAL2
% maxcore 2000
% output
    # printlevel mini
    print[ P_Basis ] 0
    print[ P_SCFInfo ] 1
    print[ P_SCFIterInfo ] 1
    print[ P_OrbEn ] 0
    print[ P_Cartesian ] 0
end
*xyz 0 1
 C        0.8961190000     0.0249250000     0.0928430000 
 C        2.3423150000    -0.0242810000     0.0598210000 
 C        3.5449070000    -0.0826500000     0.0209380000 
 C        4.9592390000    -0.0783440000     0.0235570000 
 N        5.6146730000    -0.9888780000    -0.5831460000 
 O        6.9691830000    -0.7910540000    -0.4510280000 
 H        0.5464730000     0.9226840000     0.6081550000 
 H        0.4890350000    -0.8453580000     0.6143040000 
 H        0.4839740000     0.0324290000    -0.9195390000 
 H        5.4840800000     0.7178420000     0.5545360000 
 H        7.3462010000    -1.5271230000    -0.9414510000 
*
