! RI PBE def2-SVP def2-SVP/J NBO PAL2
% maxcore 2000
% output
    # printlevel mini
    print[ P_Basis ] 0
    print[ P_SCFInfo ] 1
    print[ P_SCFIterInfo ] 1
    print[ P_OrbEn ] 0
    print[ P_Cartesian ] 0
end
*xyz 0 1
 C        1.0425210000     0.0003250000    -0.0874580000 
 C        2.4897270000     0.0081860000    -0.1073060000 
 C        3.6928560000     0.0093490000    -0.1099990000 
 C        5.1451090000    -0.0142180000    -0.0506750000 
 N        5.7508530000     0.4435220000    -1.1746880000 
 O        5.7527370000    -0.4101750000     0.9205970000 
 H        0.6467040000    -0.6043020000    -0.9071560000 
 H        0.6484170000     1.0137860000    -0.1960840000 
 H        0.6692760000    -0.4121250000     0.8526480000 
 H        5.2192330000     0.7642970000    -1.9623900000 
 H        6.7554770000     0.4556550000    -1.2045780000 
*
