! RI PBE def2-SVP def2-SVP/J NBO PAL2
% maxcore 2000
% output
    # printlevel mini
    print[ P_Basis ] 0
    print[ P_SCFInfo ] 1
    print[ P_SCFIterInfo ] 1
    print[ P_OrbEn ] 0
    print[ P_Cartesian ] 0
end
*xyz 0 1
 C        1.9808840000    -0.2533520000     1.3392100000 
 C        2.5311000000     0.0024080000    -0.0600560000 
 C        3.0113360000    -1.2454340000    -0.7327990000 
 C        2.0424490000    -2.3251000000    -1.0925500000 
 N        4.2608110000    -1.3200390000    -0.9614160000 
 O        4.6049690000    -2.5219700000    -1.5721660000 
 H        1.6159220000     0.6740280000     1.7856220000 
 H        2.7565600000    -0.6609750000     1.9912340000 
 H        1.1494710000    -0.9623680000     1.3238340000 
 H        3.3625180000     0.7086170000    -0.0171100000 
 H        1.7484010000     0.4545230000    -0.6812500000 
 H        1.0160290000    -2.0198590000    -0.8896890000 
 H        2.2566740000    -3.2387780000    -0.5317980000 
 H        2.1397220000    -2.5814930000    -2.1499720000 
 H        5.5532550000    -2.4292980000    -1.6937940000 
*
