! RI PBE def2-SVP def2-SVP/J NBO PAL2
% maxcore 2000
% output
    # printlevel mini
    print[ P_Basis ] 0
    print[ P_SCFInfo ] 1
    print[ P_SCFIterInfo ] 1
    print[ P_OrbEn ] 0
    print[ P_Cartesian ] 0
end
*xyz 0 1
 C        1.0290780000    -0.2611810000     0.0576010000 
 C        2.5468250000    -0.2082010000     0.0354160000 
 C        3.0754190000     1.2126220000     0.0595080000 
 C        4.5900730000     1.2899710000     0.0380550000 
 N        5.0937000000     2.5518470000     0.0589430000 
 O        5.3067120000     0.3128120000     0.0063260000 
 H        0.6697420000    -1.2923400000     0.0397400000 
 H        0.5982750000     0.2533510000    -0.8065030000 
 H        0.6254580000     0.2133360000     0.9570090000 
 H        2.9318140000    -0.7157010000    -0.8527880000 
 H        2.9586490000    -0.7551870000     0.8874020000 
 H        2.7164770000     1.7395490000     0.9523950000 
 H        2.6896600000     1.7792270000    -0.7971500000 
 H        4.5030290000     3.3617790000     0.0857490000 
 H        6.0913900000     2.6709360000     0.0470150000 
*
