! RI PBE def2-SVP def2-SVP/J NBO PAL2
% maxcore 2000
% output
    # printlevel mini
    print[ P_Basis ] 0
    print[ P_SCFInfo ] 1
    print[ P_SCFIterInfo ] 1
    print[ P_OrbEn ] 0
    print[ P_Cartesian ] 0
end
*xyz 0 1
 C        1.2713660000     0.7855480000    -0.1241500000 
 C        2.1232520000    -0.1616030000     0.2407930000 
 C        3.1593210000    -0.7503940000    -0.6598300000 
 N        4.4930930000    -0.5921670000    -0.1213970000 
 C        5.3325040000    -1.6289620000     0.0964420000 
 O        5.0896080000    -2.7893480000    -0.1407980000 
 H        0.5254420000     1.1739800000     0.5591190000 
 H        1.2831030000     1.1993140000    -1.1281690000 
 H        2.0954520000    -0.5596810000     1.2528060000 
 H        3.0919100000    -0.3017220000    -1.6567020000 
 H        3.0112320000    -1.8278980000    -0.7703010000 
 H        4.8040310000     0.3306170000     0.1319680000 
 H        6.2964840000    -1.2983820000     0.5271260000 
*
