! RI PBE def2-SVP def2-SVP/J NBO PAL2
% maxcore 2000
% output
    # printlevel mini
    print[ P_Basis ] 0
    print[ P_SCFInfo ] 1
    print[ P_SCFIterInfo ] 1
    print[ P_OrbEn ] 0
    print[ P_Cartesian ] 0
end
*xyz 0 1
 C        0.7605630000    -0.3002290000    -1.0230060000 
 C        2.0412380000     0.1622700000    -0.3836370000 
 C        3.1078760000     0.4919590000    -1.1120390000 
 N        1.9828000000     0.2039510000     1.0128820000 
 C        2.9558350000     0.5754560000     1.8908300000 
 O        2.8016580000     0.5746830000     3.0877370000 
 H        0.3615430000     0.4672600000    -1.6880920000 
 H       -0.0085020000    -0.5285950000    -0.2829130000 
 H        0.9276250000    -1.2015390000    -1.6148830000 
 H        3.0488590000     0.4248720000    -2.1898400000 
 H        4.0447440000     0.8277970000    -0.6912450000 
 H        1.1177740000    -0.0721910000     1.4521490000 
 H        3.8989770000     0.8768150000     1.4100770000 
*
