! RI PBE def2-SVP def2-SVP/J NBO PAL2
% maxcore 2000
% output
    # printlevel mini
    print[ P_Basis ] 0
    print[ P_SCFInfo ] 1
    print[ P_SCFIterInfo ] 1
    print[ P_OrbEn ] 0
    print[ P_Cartesian ] 0
end
*xyz 0 1
 C        1.0346960000    -0.0889840000     0.0216510000 
 C        2.5554460000    -0.0721110000     0.0879670000 
 C        3.0267770000     1.1005130000     0.9526920000 
 N        3.0128780000    -1.3642670000     0.5876780000 
 C        3.1001160000     0.0664410000    -1.3336000000 
 O        4.5119700000     0.0353480000    -1.3992610000 
 H        0.6103640000    -0.2370590000     1.0185890000 
 H        0.6918210000    -0.9088510000    -0.6125360000 
 H        0.6415090000     0.8524520000    -0.3709420000 
 H        2.6156570000     1.0159770000     1.9623890000 
 H        2.7062420000     2.0645420000     0.5446310000 
 H        4.1163960000     1.1078250000     1.0479100000 
 H        2.8057300000    -1.4597910000     1.5749420000 
 H        4.0191710000    -1.4275190000     0.4784840000 
 H        2.7035530000     0.9821730000    -1.7917470000 
 H        2.7544110000    -0.7870240000    -1.9207220000 
 H        4.8503730000     0.8744350000    -1.0784340000 
*
