! RI PBE def2-SVP def2-SVP/J NBO PAL2
% maxcore 2000
% output
    # printlevel mini
    print[ P_Basis ] 0
    print[ P_SCFInfo ] 1
    print[ P_SCFIterInfo ] 1
    print[ P_OrbEn ] 0
    print[ P_Cartesian ] 0
end
*xyz 0 1
 C        1.0431590000    -0.1990230000    -0.0623760000 
 C        2.4832930000     0.1866420000    -0.3631970000 
 C        2.8297630000     0.0034970000    -1.8327840000 
 N        2.7478150000     1.5498870000     0.0597710000 
 C        3.6504750000     1.8826000000     1.0069210000 
 O        4.3482590000     1.1075770000     1.6207070000 
 H        0.8566630000    -1.2378930000    -0.3435650000 
 H        0.3438540000     0.4275220000    -0.6254680000 
 H        0.8243820000    -0.0861240000     1.0008170000 
 H        3.1537660000    -0.4262610000     0.2432460000 
 H        2.2009520000     0.6380540000    -2.4657060000 
 H        2.6689740000    -1.0324600000    -2.1394570000 
 H        3.8738040000     0.2595590000    -2.0209180000 
 H        2.2313130000     2.2972830000    -0.3747120000 
 H        3.6914170000     2.9762500000     1.1738320000 
*
