! RI PBE def2-SVP def2-SVP/J NBO PAL2
% maxcore 2000
% output
    # printlevel mini
    print[ P_Basis ] 0
    print[ P_SCFInfo ] 1
    print[ P_SCFIterInfo ] 1
    print[ P_OrbEn ] 0
    print[ P_Cartesian ] 0
end
*xyz 0 1
 C        1.4850200000     1.0378090000    -0.5974160000 
 C        1.5914870000     0.3073740000     0.7331090000 
 C        2.9153470000     0.4673670000     1.4881640000 
 N        2.8246480000     0.1114480000     2.9014190000 
 C        4.0586380000    -0.3605190000     0.9245710000 
 O        4.3285580000     0.0071610000    -0.4131140000 
 H        1.6626090000     2.1092520000    -0.4662460000 
 H        0.4848210000     0.9199480000    -1.0218360000 
 H        2.2132840000     0.6693200000    -1.3179540000 
 H        0.7984830000     0.6702750000     1.3977410000 
 H        1.3988120000    -0.7644460000     0.5914780000 
 H        3.2205580000     1.5199710000     1.4392320000 
 H        2.4564330000    -0.8295370000     2.9964060000 
 H        2.1676030000     0.7217080000     3.3715100000 
 H        3.7842080000    -1.4264140000     0.9884000000 
 H        4.9329030000    -0.2023480000     1.5662610000 
 H        5.1069970000    -0.4709880000    -0.7052360000 
*
