! RI PBE def2-SVP def2-SVP/J NBO PAL2
% maxcore 2000
% output
    # printlevel mini
    print[ P_Basis ] 0
    print[ P_SCFInfo ] 1
    print[ P_SCFIterInfo ] 1
    print[ P_OrbEn ] 0
    print[ P_Cartesian ] 0
end
*xyz 0 1
 C        1.5908610000    -0.9520850000    -0.3118620000 
 C        2.9152840000    -0.1960270000    -0.2992550000 
 C        2.8643040000     1.0200180000     0.5567100000 
 N        3.6441970000     1.1391560000     1.5477290000 
 O        3.4433060000     2.3256030000     2.2224000000 
 C        4.3367180000     2.3995800000     3.3112710000 
 H        1.6434210000    -1.8150430000    -0.9788360000 
 H        0.7721730000    -0.3146520000    -0.6560410000 
 H        1.3370600000    -1.3106580000     0.6879950000 
 H        3.1678540000     0.1065480000    -1.3227200000 
 H        3.7247770000    -0.8366160000     0.0573350000 
 H        2.1387810000     1.8062310000     0.3311200000 
 H        4.1314240000     3.3520420000     3.8001000000 
 H        5.3759150000     2.3762550000     2.9706720000 
 H        4.1685160000     1.5798580000     4.0157830000 
*
