! RI PBE def2-SVP def2-SVP/J NBO PAL2
% maxcore 2000
% output
    # printlevel mini
    print[ P_Basis ] 0
    print[ P_SCFInfo ] 1
    print[ P_SCFIterInfo ] 1
    print[ P_OrbEn ] 0
    print[ P_Cartesian ] 0
end
*xyz 0 1
 C        1.3627610000    -0.3078160000     0.0441400000 
 C        1.8702360000     0.4255890000    -0.9424070000 
 C        3.2989600000     0.4481890000    -1.2687460000 
 O        3.7827590000     1.1029770000    -2.1560480000 
 C        4.1736350000    -0.4012310000    -0.4324840000 
 N        4.8635460000    -1.0581520000     0.2114460000 
 H        1.9931890000    -0.9357790000     0.6658300000 
 H        0.3012720000    -0.3025440000     0.2601200000 
 H        1.2571430000     1.0590670000    -1.5743410000 
*
