! RI PBE def2-SVP def2-SVP/J NBO PAL2
% maxcore 2000
% output
    # printlevel mini
    print[ P_Basis ] 0
    print[ P_SCFInfo ] 1
    print[ P_SCFIterInfo ] 1
    print[ P_OrbEn ] 0
    print[ P_Cartesian ] 0
end
*xyz 0 1
 C        1.0065980000    -0.0799380000     0.0612950000 
 C        2.5329170000    -0.0455950000     0.0687400000 
 C        3.0687340000     1.2633820000    -0.5060120000 
 O        3.0378940000    -0.2700380000     1.3728580000 
 C        3.0363850000    -1.1637100000    -0.7489260000 
 N        3.4021540000    -2.0135270000    -1.4297190000 
 H        0.6262060000     0.7534680000     0.6583990000 
 H        0.6498940000    -1.0157280000     0.4916410000 
 H        0.6141000000     0.0171400000    -0.9521220000 
 H        2.6906480000     2.0982970000     0.0904440000 
 H        2.7435480000     1.4042770000    -1.5379500000 
 H        4.1582460000     1.2697070000    -0.4734880000 
 H        2.7240780000     0.4474440000     1.9318510000 
*
