! RI PBE def2-SVP def2-SVP/J NBO PAL2
% maxcore 2000
% output
    # printlevel mini
    print[ P_Basis ] 0
    print[ P_SCFInfo ] 1
    print[ P_SCFIterInfo ] 1
    print[ P_OrbEn ] 0
    print[ P_Cartesian ] 0
end
*xyz 0 1
 C        1.0168280000    -0.2035260000    -0.1298530000 
 C        2.5185210000     0.0377730000    -0.0018680000 
 C        3.0446280000     0.9488210000    -1.0689230000 
 O        3.5890040000     2.0019090000    -0.8864830000 
 C        2.8472810000     0.4639540000    -2.4543500000 
 N        2.6936480000     0.0700720000    -3.5239910000 
 H        0.6839310000    -0.8924180000     0.6472630000 
 H        0.7624870000    -0.6414170000    -1.0972350000 
 H        0.4590880000     0.7281560000    -0.0183320000 
 H        3.0530570000    -0.9154060000    -0.0916050000 
 H        2.7771260000     0.4868000000     0.9581870000 
*
