! RI PBE def2-SVP def2-SVP/J NBO PAL2
% maxcore 2000
% output
    # printlevel mini
    print[ P_Basis ] 0
    print[ P_SCFInfo ] 1
    print[ P_SCFIterInfo ] 1
    print[ P_OrbEn ] 0
    print[ P_Cartesian ] 0
end
*xyz 0 1
 C        0.9713790000     0.1107050000    -0.1052070000 
 C        2.4878180000     0.0814450000    -0.0379930000 
 C        3.0418180000    -1.1319520000     0.7041090000 
 O        4.4434690000    -1.2213870000     0.6463650000 
 C        2.5704240000    -1.1500530000     2.1003790000 
 N        2.2176720000    -1.1271570000     3.1944190000 
 H        0.6288120000     0.9832410000    -0.6636480000 
 H        0.5270420000     0.1571090000     0.8915440000 
 H        0.5802820000    -0.7783260000    -0.6069710000 
 H        2.8641550000     0.9881360000     0.4484750000 
 H        2.9212220000     0.0507000000    -1.0411550000 
 H        2.6706960000    -2.0449030000     0.2273110000 
 H        4.8204910000    -0.4519590000     1.0847720000 
*
