! RI PBE def2-SVP def2-SVP/J NBO PAL2
% maxcore 2000
% output
    # printlevel mini
    print[ P_Basis ] 0
    print[ P_SCFInfo ] 1
    print[ P_SCFIterInfo ] 1
    print[ P_OrbEn ] 0
    print[ P_Cartesian ] 0
end
*xyz 0 1
 C        0.7172900000    -1.3798310000     0.4245390000 
 C        1.5631970000    -0.3950470000     0.1630460000 
 C        2.8091430000    -0.1449240000     0.9357890000 
 O        3.8925980000    -0.0813950000     0.0151490000 
 N        5.0079080000     0.4069080000     0.6467940000 
 C        6.0168850000     0.4250150000    -0.1151670000 
 H       -0.2015100000    -1.5031980000    -0.1366070000 
 H        0.9111450000    -2.0966990000     1.2164000000 
 H        1.3559450000     0.3064940000    -0.6413350000 
 H        2.9846960000    -0.9388320000     1.6696880000 
 H        2.7504630000     0.8106160000     1.4698260000 
 H        6.9373420000     0.8059120000     0.3100670000 
 H        5.9820880000     0.0813830000    -1.1480600000 
*
