! RI PBE def2-SVP def2-SVP/J NBO PAL2
% maxcore 2000
% output
    # printlevel mini
    print[ P_Basis ] 0
    print[ P_SCFInfo ] 1
    print[ P_SCFIterInfo ] 1
    print[ P_OrbEn ] 0
    print[ P_Cartesian ] 0
end
*xyz 0 1
 C        0.9367750000    -0.3457770000    -0.2061430000 
 C        2.4401410000    -0.4436630000    -0.3510240000 
 C        2.8718890000    -1.0070260000    -1.6847210000 
 O        3.0444110000     0.8527900000    -0.2651290000 
 N        3.0023560000     1.3136520000     1.0218580000 
 C        3.4878460000     2.4764250000     1.1330130000 
 H        0.4850230000    -1.3398950000    -0.2454430000 
 H        0.5141190000     0.2581180000    -1.0134260000 
 H        0.6753090000     0.1131930000     0.7483210000 
 H        2.8508600000    -1.0500660000     0.4641220000 
 H        2.5044090000    -0.3817510000    -2.5020570000 
 H        2.4669460000    -2.0124100000    -1.8149500000 
 H        3.9597960000    -1.0591390000    -1.7518960000 
 H        3.5015090000     2.9032090000     2.1283940000 
 H        3.8801210000     3.0350190000     0.2841920000 
*
