! RI PBE def2-SVP def2-SVP/J NBO PAL2
% maxcore 2000
% output
    # printlevel mini
    print[ P_Basis ] 0
    print[ P_SCFInfo ] 1
    print[ P_SCFIterInfo ] 1
    print[ P_OrbEn ] 0
    print[ P_Cartesian ] 0
end
*xyz 0 1
 C        1.1741290000     0.0386650000    -0.2005610000 
 C        2.6779890000    -0.0365800000    -0.0367280000 
 C        3.0965220000    -0.9355440000     1.1132340000 
 O        2.3031670000    -1.5253030000     1.8203280000 
 N        4.4341810000    -1.0382670000     1.3023780000 
 C        4.9829340000    -1.8552560000     2.3555050000 
 H        0.9099910000     0.6922370000    -1.0343750000 
 H        0.7030600000     0.4229410000     0.7048490000 
 H        0.7533030000    -0.9499760000    -0.3872440000 
 H        3.0991860000     0.9604450000     0.1356480000 
 H        3.1493460000    -0.4090780000    -0.9533700000 
 H        5.0542700000    -0.5339570000     0.6952380000 
 H        4.6839900000    -2.8995290000     2.2382470000 
 H        4.6354910000    -1.5184190000     3.3350240000 
 H        6.0702500000    -1.7922980000     2.3243160000 
*
