! RI PBE def2-SVP def2-SVP/J NBO PAL2
% maxcore 2000
% output
    # printlevel mini
    print[ P_Basis ] 0
    print[ P_SCFInfo ] 1
    print[ P_SCFIterInfo ] 1
    print[ P_OrbEn ] 0
    print[ P_Cartesian ] 0
end
*xyz 0 1
 C        0.7575320000    -0.4487090000    -0.3756020000 
 C        2.2424110000    -0.1703140000    -0.2130540000 
 C        2.8303690000    -0.9364300000     0.9468180000 
 O        4.2129830000    -0.6180060000     1.0241610000 
 N        4.7901860000    -1.2929940000     2.0664720000 
 C        6.0247390000    -1.0402470000     2.1749840000 
 H        0.3435200000     0.1103020000    -1.2167640000 
 H        0.1980440000    -0.1626070000     0.5191660000 
 H        0.5686490000    -1.5099830000    -0.5586680000 
 H        2.4119870000     0.8991030000    -0.0544550000 
 H        2.7806300000    -0.4411410000    -1.1265830000 
 H        2.7138690000    -2.0171640000     0.8058720000 
 H        2.3414480000    -0.6631680000     1.8890000000 
 H        6.5524440000    -1.5383070000     2.9790250000 
 H        6.5481760000    -0.3599340000     1.5044390000 
*
