! RI PBE def2-SVP def2-SVP/J NBO PAL2
% maxcore 2000
% output
    # printlevel mini
    print[ P_Basis ] 0
    print[ P_SCFInfo ] 1
    print[ P_SCFIterInfo ] 1
    print[ P_OrbEn ] 0
    print[ P_Cartesian ] 0
end
*xyz 0 1
 C        1.0413820000    -0.0907540000     0.1581440000 
 C        2.5407030000     0.1535420000     0.0012090000 
 N        3.2055710000     0.6001790000     1.2122630000 
 C        3.2123910000    -1.0975220000    -0.5120840000 
 C        4.6038930000    -1.4249800000    -0.2354870000 
 O        3.5458320000    -2.0767460000     0.4624750000 
 H        0.5376420000     0.8143610000     0.5065360000 
 H        0.8602920000    -0.8848400000     0.8878700000 
 H        0.5797010000    -0.3874470000    -0.7883430000 
 H        2.6904710000     0.9261960000    -0.7642060000 
 H        3.1416300000    -0.1293710000     1.9141350000 
 H        2.7470510000     1.4218340000     1.5838490000 
 H        2.7611710000    -1.5124370000    -1.4133070000 
 H        5.1911020000    -0.7364160000     0.3633530000 
 H        5.1509590000    -2.0581000000    -0.9297080000 
*
