! RI PBE def2-SVP def2-SVP/J NBO PAL2
% maxcore 2000
% output
    # printlevel mini
    print[ P_Basis ] 0
    print[ P_SCFInfo ] 1
    print[ P_SCFIterInfo ] 1
    print[ P_OrbEn ] 0
    print[ P_Cartesian ] 0
end
*xyz 0 1
 C        1.2210660000     0.2410350000    -0.2287240000 
 C        2.6928870000     0.5940190000    -0.2159750000 
 N        3.4433700000    -0.3212730000     0.6249950000 
 C        4.8764380000    -0.0804870000     0.6625520000 
 C        5.1898340000     1.0056660000     1.6788440000 
 O        4.6124540000     0.6957410000     2.9208360000 
 H        0.6597350000     0.9399490000    -0.8519320000 
 H        0.8068000000     0.2686350000     0.7811890000 
 H        1.0598580000    -0.7634460000    -0.6318940000 
 H        2.8222860000     1.6069240000     0.1772730000 
 H        3.0836260000     0.6105700000    -1.2480360000 
 H        3.2532650000    -1.2738430000     0.3441840000 
 H        5.2901750000     0.1934290000    -0.3218520000 
 H        5.3643920000    -1.0041350000     0.9856000000 
 H        4.8341650000     1.9813090000     1.3134570000 
 H        6.2716830000     1.0866320000     1.8150850000 
 H        3.7709620000     0.2715940000     2.6965780000 
*
