! RI PBE def2-SVP def2-SVP/J NBO PAL2
% maxcore 2000
% output
    # printlevel mini
    print[ P_Basis ] 0
    print[ P_SCFInfo ] 1
    print[ P_SCFIterInfo ] 1
    print[ P_OrbEn ] 0
    print[ P_Cartesian ] 0
end
*xyz 0 1
 C        0.9925120000    -0.0295960000    -0.0188300000 
 C        2.5155610000    -0.0718850000     0.0735150000 
 N        3.1822450000     0.9904640000    -0.6607640000 
 C        2.9863990000    -0.0454700000     1.5319180000 
 C        4.4785450000    -0.2318180000     1.6738950000 
 O        2.6624310000     1.1953130000     2.1497130000 
 H        0.6675170000    -0.1138780000    -1.0589330000 
 H        0.5999050000     0.9192690000     0.3617080000 
 H        0.5271600000    -0.8474230000     0.5409640000 
 H        2.8533080000    -1.0295880000    -0.3430230000 
 H        3.0118980000     1.8742070000    -0.1929810000 
 H        2.8126870000     1.0657770000    -1.5998620000 
 H        2.4711760000    -0.8617710000     2.0594670000 
 H        5.0091410000     0.5613300000     1.1469010000 
 H        4.7851610000    -1.1895800000     1.2478890000 
 H        4.7597200000    -0.2115030000     2.7280100000 
 H        1.7094340000     1.2416730000     2.2578030000 
*
