! RI PBE def2-SVP def2-SVP/J NBO PAL2
% maxcore 2000
% output
    # printlevel mini
    print[ P_Basis ] 0
    print[ P_SCFInfo ] 1
    print[ P_SCFIterInfo ] 1
    print[ P_OrbEn ] 0
    print[ P_Cartesian ] 0
end
*xyz 0 1
 C        2.5644000000    -0.6782550000    -1.3891040000 
 C        2.6436290000    -0.1995840000     0.0508670000 
 N        3.0552000000    -1.2342250000     0.9777410000 
 C        2.0813730000    -2.1960740000     1.4171070000 
 C        4.3403980000    -1.2891590000     1.3948490000 
 O        5.2229740000    -0.5321310000     1.0564070000 
 H        2.2385330000     0.1371210000    -2.0388230000 
 H        1.8539600000    -1.4999560000    -1.5073430000 
 H        3.5437160000    -1.0161960000    -1.7326630000 
 H        1.6727500000     0.1852940000     0.3811020000 
 H        3.3737270000     0.6062180000     0.1362880000 
 H        1.2500390000    -1.7053390000     1.9342230000 
 H        2.5497990000    -2.8973610000     2.1092210000 
 H        1.6724640000    -2.7691860000     0.5791640000 
 H        4.5121280000    -2.1212780000     2.1043840000 
*
