! RI PBE def2-SVP def2-SVP/J NBO PAL2
% maxcore 2000
% output
    # printlevel mini
    print[ P_Basis ] 0
    print[ P_SCFInfo ] 1
    print[ P_SCFIterInfo ] 1
    print[ P_OrbEn ] 0
    print[ P_Cartesian ] 0
end
*xyz 0 1
 C        2.4471860000     1.1525770000    -0.9539300000 
 C        2.6194370000    -0.0760340000    -0.0775100000 
 N        3.0948710000     0.2347270000     1.2508410000 
 C        4.4019350000     0.1286690000     1.6005120000 
 C        4.7333640000     0.5431620000     3.0132970000 
 O        5.2561910000    -0.2806580000     0.8386940000 
 H        2.0842630000     0.8677310000    -1.9444490000 
 H        3.4000890000     1.6710500000    -1.0751830000 
 H        1.7274960000     1.8531390000    -0.5218440000 
 H        3.3552440000    -0.7513380000    -0.5159700000 
 H        1.6751090000    -0.6219450000     0.0080900000 
 H        2.4538570000     0.6347110000     1.9129520000 
 H        3.8700630000     0.8792100000     3.5899980000 
 H        5.4726480000     1.3446170000     2.9753020000 
 H        5.1958360000    -0.3033090000     3.5229100000 
*
