! RI PBE def2-SVP def2-SVP/J NBO PAL2
% maxcore 2000
% output
    # printlevel mini
    print[ P_Basis ] 0
    print[ P_SCFInfo ] 1
    print[ P_SCFIterInfo ] 1
    print[ P_OrbEn ] 0
    print[ P_Cartesian ] 0
end
*xyz 0 1
 C        1.1480730000    -0.7232080000     0.2512250000 
 C        2.6247930000    -0.5028590000     0.0418600000 
 O        3.2363600000    -1.7357000000    -0.2438830000 
 C        4.6228730000    -1.6260660000    -0.4562670000 
 C        5.1556300000    -2.9823880000    -0.8429180000 
 N        4.5919140000    -3.3946430000    -2.1162700000 
 H        0.6516720000     0.2227590000     0.4783840000 
 H        0.9753020000    -1.4116970000     1.0807430000 
 H        0.6905770000    -1.1450770000    -0.6459240000 
 H        3.0799540000    -0.0599090000     0.9416640000 
 H        2.7975670000     0.2009790000    -0.7868070000 
 H        5.1212540000    -1.2692380000     0.4581390000 
 H        4.8260690000    -0.9060200000    -1.2628910000 
 H        4.9534740000    -3.6794370000    -0.0144380000 
 H        6.2427000000    -2.9041830000    -0.9440250000 
 H        3.5825960000    -3.4247040000    -2.0366650000 
 H        4.9021930000    -4.3256180000    -2.3623370000 
*
