! RI PBE def2-SVP def2-SVP/J NBO PAL2
% maxcore 2000
% output
    # printlevel mini
    print[ P_Basis ] 0
    print[ P_SCFInfo ] 1
    print[ P_SCFIterInfo ] 1
    print[ P_OrbEn ] 0
    print[ P_Cartesian ] 0
end
*xyz 0 1
 C        3.1051060000     1.3478340000    -0.7680000000 
 C        2.4877190000     0.3378220000    -0.1671370000 
 O        3.0460280000    -0.7096990000     0.4805340000 
 C        4.4488290000    -0.7208770000     0.5170660000 
 C        4.8939790000    -1.9017020000     1.2453840000 
 N        5.2850900000    -2.8200950000     1.8124960000 
 H        2.5044350000     2.1103440000    -1.2433260000 
 H        4.1798280000     1.4604030000    -0.8146020000 
 H        1.4079020000     0.2510960000    -0.1366580000 
 H        4.8372130000     0.1744620000     1.0195940000 
 H        4.8693810000    -0.7485970000    -0.4965510000 
*
