! RI PBE def2-SVP def2-SVP/J NBO PAL2
% maxcore 2000
% output
    # printlevel mini
    print[ P_Basis ] 0
    print[ P_SCFInfo ] 1
    print[ P_SCFIterInfo ] 1
    print[ P_OrbEn ] 0
    print[ P_Cartesian ] 0
end
*xyz 0 1
 C        3.5896390000    -0.0828940000    -1.6439170000 
 C        2.9200790000    -0.2230250000    -0.2848580000 
 O        3.1991110000    -1.4821050000     0.2916190000 
 C        3.2554980000     0.9215060000     0.6743590000 
 C        4.7296880000     1.0694220000     1.0181760000 
 N        5.2430290000    -0.1374590000     1.6688330000 
 H        3.2613660000    -0.8933360000    -2.2967540000 
 H        4.6774970000    -0.1485390000    -1.5602270000 
 H        3.3364370000     0.8691030000    -2.1200470000 
 H        1.8350750000    -0.2045380000    -0.4416880000 
 H        4.0744810000    -1.3957500000     0.7071890000 
 H        2.6844490000     0.7672160000     1.5975960000 
 H        2.9035770000     1.8652370000     0.2442270000 
 H        4.8670820000     1.9739480000     1.6279080000 
 H        5.3100470000     1.2229260000     0.1041550000 
 H        4.8462660000    -0.2335360000     2.5966640000 
 H        6.2480780000    -0.0929570000     1.7774640000 
*
