! RI PBE def2-SVP def2-SVP/J NBO PAL2
% maxcore 2000
% output
    # printlevel mini
    print[ P_Basis ] 0
    print[ P_SCFInfo ] 1
    print[ P_SCFIterInfo ] 1
    print[ P_OrbEn ] 0
    print[ P_Cartesian ] 0
end
*xyz 0 1
 C        0.9168090000     0.0478390000     0.0599510000 
 C        2.4283960000     0.1183530000    -0.0292400000 
 O        2.8638000000     0.5700980000    -1.2886040000 
 C        2.9972540000     0.9847240000     1.1034210000 
 C        4.4499190000     1.0227960000     1.1180650000 
 N        5.5986520000     1.0441970000     1.1441330000 
 H        0.5259400000    -0.5638490000    -0.7540360000 
 H        0.4755680000     1.0472600000    -0.0187560000 
 H        0.5913840000    -0.3881920000     1.0072630000 
 H        2.8482270000    -0.8868090000     0.0668130000 
 H        2.4387630000     1.4113670000    -1.4822710000 
 H        2.6530550000     0.6081160000     2.0713630000 
 H        2.6210330000     2.0094910000     1.0079990000 
*
