! RI PBE def2-SVP def2-SVP/J NBO PAL2
% maxcore 2000
% output
    # printlevel mini
    print[ P_Basis ] 0
    print[ P_SCFInfo ] 1
    print[ P_SCFIterInfo ] 1
    print[ P_OrbEn ] 0
    print[ P_Cartesian ] 0
end
*xyz 0 1
 C        1.1635580000    -1.2277570000    -0.3772540000 
 C        2.3341960000    -0.3264510000    -0.0878510000 
 O        1.8354320000     0.9553520000     0.2586130000 
 C        2.8311650000     1.8727980000     0.5792360000 
 C        3.6681020000     2.2465780000    -0.5721830000 
 N        4.3219440000     2.5305950000    -1.4736540000 
 H        1.5171140000    -2.2256460000    -0.6443690000 
 H        0.5747370000    -0.8369400000    -1.2088300000 
 H        0.5145890000    -1.3127540000     0.4962310000 
 H        2.9902570000    -0.2447200000    -0.9645970000 
 H        2.9365690000    -0.7190130000     0.7446300000 
 H        3.4971090000     1.4976490000     1.3703880000 
 H        2.3398270000     2.7742880000     0.9521300000 
*
