! RI PBE def2-SVP def2-SVP/J NBO PAL2
% maxcore 2000
% output
    # printlevel mini
    print[ P_Basis ] 0
    print[ P_SCFInfo ] 1
    print[ P_SCFIterInfo ] 1
    print[ P_OrbEn ] 0
    print[ P_Cartesian ] 0
end
*xyz 0 1
 C        1.1824630000     0.2510940000     0.0185300000 
 C        2.6865390000     0.3279200000    -0.0421380000 
 O        3.3041520000     1.3652410000     0.0397050000 
 N        3.3065320000    -0.8871000000    -0.2014030000 
 C        4.6806330000    -1.0342760000    -0.2811330000 
 C        5.3102780000    -2.1944380000    -0.4349840000 
 H        0.7852550000     1.2551150000     0.1442130000 
 H        0.8592990000    -0.3722750000     0.8563120000 
 H        0.7787940000    -0.1843360000    -0.8992780000 
 H        2.7330250000    -1.7122230000    -0.2633680000 
 H        5.2044270000    -0.0893150000    -0.2040020000 
 H        4.7805150000    -3.1379490000    -0.5116660000 
 H        6.3892000000    -2.2208770000    -0.4879680000 
*
