! RI PBE def2-SVP def2-SVP/J NBO PAL2
% maxcore 2000
% output
    # printlevel mini
    print[ P_Basis ] 0
    print[ P_SCFInfo ] 1
    print[ P_SCFIterInfo ] 1
    print[ P_OrbEn ] 0
    print[ P_Cartesian ] 0
end
*xyz 0 1
 C        1.0558920000     0.0320220000     0.2362910000 
 N        2.4655540000     0.0619450000    -0.0278940000 
 C        3.4288510000     1.1506220000    -0.1316880000 
 C        4.5061620000     0.0826530000    -0.4124380000 
 C        3.3646150000    -0.9322780000    -0.2696290000 
 O        3.2460070000    -2.1262720000    -0.3331440000 
 H        0.6986320000     1.0527570000     0.3744030000 
 H        0.8354270000    -0.5394230000     1.1421460000 
 H        0.5076180000    -0.4191070000    -0.5953050000 
 H        3.5628410000     1.7155880000     0.7955370000 
 H        3.2313410000     1.8418990000    -0.9563140000 
 H        5.2849720000    -0.0123470000     0.3435480000 
 H        4.9537770000     0.1136390000    -1.4053010000 
*
