! RI PBE def2-SVP def2-SVP/J NBO PAL2
% maxcore 2000
% output
    # printlevel mini
    print[ P_Basis ] 0
    print[ P_SCFInfo ] 1
    print[ P_SCFIterInfo ] 1
    print[ P_OrbEn ] 0
    print[ P_Cartesian ] 0
end
*xyz 0 1
 C        0.9188350000    -0.0315890000     0.0601550000 
 N        2.3562320000    -0.0387490000     0.0636600000 
 C        3.0417040000     1.0444520000     0.7839600000 
 C        3.9653030000    -0.0113650000     1.3746930000 
 O        4.9885930000    -0.0001020000     1.9813180000 
 C        3.0309320000    -1.0882350000     0.8417270000 
 H        0.5528610000     0.8374380000    -0.4909410000 
 H        0.4863880000    -0.0018130000     1.0769570000 
 H        0.5439730000    -0.9254970000    -0.4430940000 
 H        2.4357240000     1.5152610000     1.5754620000 
 H        3.4899160000     1.8242650000     0.1626450000 
 H        2.4204500000    -1.5093660000     1.6573910000 
 H        3.4710780000    -1.9050210000     0.2636570000 
*
