! RI PBE def2-SVP def2-SVP/J NBO PAL2
% maxcore 2000
% output
    # printlevel mini
    print[ P_Basis ] 0
    print[ P_SCFInfo ] 1
    print[ P_SCFIterInfo ] 1
    print[ P_OrbEn ] 0
    print[ P_Cartesian ] 0
end
*xyz 0 1
 C        0.9621670000     0.0326580000     0.1226270000 
 N        2.3951680000     0.0310880000     0.1885950000 
 C        3.0720210000     1.0873580000     0.9477510000 
 C        4.1424690000     0.0543850000     1.3420240000 
 O        5.2755530000     0.0325620000     0.5182410000 
 C        3.0674950000    -0.9912950000     0.9965920000 
 H        0.6149680000     0.9034250000    -0.4392060000 
 H        0.4902500000     0.0571630000     1.1218570000 
 H        0.6111250000    -0.8620160000    -0.3977250000 
 H        2.4925610000     1.4276480000     1.8213770000 
 H        3.3999510000     1.9551350000     0.3679430000 
 H        4.5021700000     0.0777350000     2.3690730000 
 H        4.9684600000     0.0117960000    -0.3940400000 
 H        2.4866490000    -1.2876540000     1.8851770000 
 H        3.3915850000    -1.8867660000     0.4582150000 
*
