! RI PBE def2-SVP def2-SVP/J NBO PAL2
% maxcore 2000
% output
    # printlevel mini
    print[ P_Basis ] 0
    print[ P_SCFInfo ] 1
    print[ P_SCFIterInfo ] 1
    print[ P_OrbEn ] 0
    print[ P_Cartesian ] 0
end
*xyz 0 1
 C        1.0520780000     0.0170920000     0.0864210000 
 N        2.4959050000     0.1301940000     0.0477030000 
 C        3.1329370000    -0.2276430000     1.3088360000 
 C        4.6485090000    -0.1801590000     1.2061130000 
 C        5.2153990000    -1.1847950000     0.2152050000 
 O        4.8297860000    -0.9276780000    -1.1121690000 
 H        0.6273720000     0.3667750000    -0.8560370000 
 H        0.5901740000     0.5854230000     0.9088850000 
 H        0.7719410000    -1.0321030000     0.2092000000 
 H        2.7563550000     1.0801600000    -0.1930640000 
 H        2.8196110000    -1.2496950000     1.5542520000 
 H        2.7856420000     0.4113900000     2.1383580000 
 H        5.0713900000    -0.3771340000     2.1969890000 
 H        4.9710560000     0.8285100000     0.9200510000 
 H        4.9128760000    -2.1993680000     0.5245130000 
 H        6.3086410000    -1.1564200000     0.2431070000 
 H        3.8801270000    -0.7190490000    -1.0743740000 
*
