! RI PBE def2-SVP def2-SVP/J NBO PAL2
% maxcore 2000
% output
    # printlevel mini
    print[ P_Basis ] 0
    print[ P_SCFInfo ] 1
    print[ P_SCFIterInfo ] 1
    print[ P_OrbEn ] 0
    print[ P_Cartesian ] 0
end
*xyz 0 1
 C        0.8988450000     0.0692130000     0.8345810000 
 N        2.0994970000    -0.0318300000     0.0334330000 
 C        2.8844710000    -1.1832370000     0.4174770000 
 C        1.8224030000    -0.0050670000    -1.3930400000 
 C        1.4937950000     1.4051500000    -1.8496820000 
 O        2.4923270000     2.3024110000    -1.4353740000 
 H        1.1655690000     0.1244140000     1.8920470000 
 H        0.2264520000    -0.7956110000     0.6946110000 
 H        0.3438300000     0.9740850000     0.5832460000 
 H        3.1342710000    -1.1221690000     1.4792320000 
 H        3.8165930000    -1.2054560000    -0.1503720000 
 H        2.3550880000    -2.1374400000     0.2485140000 
 H        1.0113120000    -0.7002540000    -1.6749220000 
 H        2.7294330000    -0.3289290000    -1.9112430000 
 H        0.5074410000     1.7149570000    -1.4734510000 
 H        1.4424410000     1.4321460000    -2.9415580000 
 H        2.7794310000     1.9689270000    -0.5732970000 
*
