! RI PBE def2-SVP def2-SVP/J NBO PAL2
% maxcore 2000
% output
    # printlevel mini
    print[ P_Basis ] 0
    print[ P_SCFInfo ] 1
    print[ P_SCFIterInfo ] 1
    print[ P_OrbEn ] 0
    print[ P_Cartesian ] 0
end
*xyz 0 1
 C        1.4433310000    -0.7818450000     0.4480990000 
 N        2.8357560000    -0.6582470000     0.8185420000 
 C        3.2027410000     0.6370120000     1.3589980000 
 C        2.6513640000     0.8344570000     2.7605060000 
 C        4.7129540000     0.7374310000     1.3776920000 
 O        5.1882310000     0.6079850000     0.0492910000 
 H        1.2919750000    -1.7239140000    -0.0822930000 
 H        1.0812510000     0.0367630000    -0.1973110000 
 H        0.8077000000    -0.8079290000     1.3365450000 
 H        3.4176770000    -0.8223980000     0.0060050000 
 H        2.8285000000     1.4574030000     0.7165800000 
 H        3.0048060000     0.0399940000     3.4227400000 
 H        1.5604740000     0.8157370000     2.7651870000 
 H        2.9634820000     1.7993010000     3.1679270000 
 H        5.1107600000    -0.0631530000     2.0157280000 
 H        5.0067200000     1.7048480000     1.8054040000 
 H        6.1383580000     0.4801740000     0.0713610000 
*
