! RI PBE def2-SVP def2-SVP/J NBO PAL2
% maxcore 2000
% output
    # printlevel mini
    print[ P_Basis ] 0
    print[ P_SCFInfo ] 1
    print[ P_SCFIterInfo ] 1
    print[ P_OrbEn ] 0
    print[ P_Cartesian ] 0
end
*xyz 0 1
 C        2.9347630000     0.5927630000     1.0612190000 
 N        2.6861870000     0.2527250000    -0.3275420000 
 C        3.1552620000    -1.0552380000    -0.7046720000 
 C        2.5729400000    -1.4855000000    -2.0500220000 
 C        4.6645160000    -1.1838270000    -0.7966860000 
 O        5.4202970000    -0.2516190000    -0.8136390000 
 H        2.5766660000     1.6060660000     1.2511920000 
 H        3.9909500000     0.5421840000     1.3600120000 
 H        2.3630330000    -0.0810290000     1.7058970000 
 H        3.1277260000     0.9413760000    -0.9265210000 
 H        2.8229200000    -1.7748660000     0.0565850000 
 H        2.8546090000    -0.7728280000    -2.8295730000 
 H        1.4852800000    -1.5104440000    -1.9849450000 
 H        2.9314980000    -2.4735830000    -2.3488950000 
 H        5.0475640000    -2.2256700000    -0.8911210000 
*
