! RI PBE def2-SVP def2-SVP/J NBO PAL2
% maxcore 2000
% output
    # printlevel mini
    print[ P_Basis ] 0
    print[ P_SCFInfo ] 1
    print[ P_SCFIterInfo ] 1
    print[ P_OrbEn ] 0
    print[ P_Cartesian ] 0
end
*xyz 0 1
 C        1.4705650000    -0.2353090000     0.5075250000 
 N        2.8071620000    -0.4418880000    -0.0074540000 
 C        3.1607750000     0.4741780000    -1.0725680000 
 C        4.6543450000     0.4093710000    -1.3774770000 
 C        5.5012340000     1.0118190000    -0.2738570000 
 O        5.0460190000    -0.9288440000    -1.6500470000 
 H        1.2362720000    -1.0049850000     1.2458240000 
 H        0.6851390000    -0.2511200000    -0.2661330000 
 H        1.4166320000     0.7330350000     1.0124400000 
 H        2.8818090000    -1.3859910000    -0.3657670000 
 H        2.9089910000     1.4912150000    -0.7526820000 
 H        2.5936710000     0.2810550000    -1.9984110000 
 H        4.8331720000     0.9535150000    -2.3104030000 
 H        5.2855170000     0.5195340000     0.6785180000 
 H        5.2897330000     2.0773050000    -0.1554800000 
 H        6.5621190000     0.8965200000    -0.5043690000 
 H        5.1693440000    -1.3652010000    -0.8017600000 
*
