! RI PBE def2-SVP def2-SVP/J NBO PAL2
% maxcore 2000
% output
    # printlevel mini
    print[ P_Basis ] 0
    print[ P_SCFInfo ] 1
    print[ P_SCFIterInfo ] 1
    print[ P_OrbEn ] 0
    print[ P_Cartesian ] 0
end
*xyz 0 1
 C        1.3819980000    -0.0292280000    -0.3959390000 
 N        2.8118400000     0.0831250000    -0.2056970000 
 C        3.1693530000     0.5432320000     1.1191870000 
 C        4.6718700000     0.6341960000     1.2667710000 
 C        5.1429770000     0.9814850000     2.6442310000 
 O        4.4277460000     1.1523770000     3.5935480000 
 H        1.1681370000    -0.3264260000    -1.4243420000 
 H        0.8262930000     0.8983670000    -0.1802510000 
 H        0.9876910000    -0.8085080000     0.2619860000 
 H        3.1982860000     0.7108560000    -0.9005280000 
 H        2.7810840000    -0.1734340000     1.8495190000 
 H        2.7139300000     1.5134750000     1.3800950000 
 H        5.1029760000     1.3769810000     0.5803660000 
 H        5.1438090000    -0.3162950000     0.9842670000 
 H        6.2468110000     1.0718840000     2.7491880000 
*
