! RI PBE def2-SVP def2-SVP/J NBO PAL2
% maxcore 2000
% output
    # printlevel mini
    print[ P_Basis ] 0
    print[ P_SCFInfo ] 1
    print[ P_SCFIterInfo ] 1
    print[ P_OrbEn ] 0
    print[ P_Cartesian ] 0
end
*xyz 0 1
 C        1.0744950000     0.1430760000    -0.1281980000 
 N        2.5030340000    -0.0380420000    -0.0963900000 
 C        3.0514800000    -1.2389740000     0.2085800000 
 O        2.3693060000    -2.2130760000     0.4679560000 
 C        4.5399500000    -1.2605080000     0.1984950000 
 C        5.2021070000    -2.3730660000     0.4794090000 
 H        0.8516330000     1.1758440000    -0.3935440000 
 H        0.6315300000    -0.0796850000     0.8453440000 
 H        0.6134870000    -0.5222500000    -0.8619750000 
 H        3.1051320000     0.7376610000    -0.3035400000 
 H        5.0683730000    -0.3421750000    -0.0446940000 
 H        4.6520300000    -3.2767600000     0.7190350000 
 H        6.2846430000    -2.4102550000     0.4776220000 
*
