! RI PBE def2-SVP def2-SVP/J NBO PAL2
% maxcore 2000
% output
    # printlevel mini
    print[ P_Basis ] 0
    print[ P_SCFInfo ] 1
    print[ P_SCFIterInfo ] 1
    print[ P_OrbEn ] 0
    print[ P_Cartesian ] 0
end
*xyz 0 1
 C        2.9112410000     0.0648050000     0.9247740000 
 O        2.0835040000     0.0990270000    -0.2106460000 
 C        2.7479480000     0.5625620000    -1.3340280000 
 C        1.9085420000     1.2062260000    -2.3825010000 
 C        2.8614250000     2.0433760000    -1.5842020000 
 N        3.9793770000     2.6585550000    -2.2343150000 
 H        2.3108010000    -0.3088140000     1.7544360000 
 H        3.2907510000     1.0632330000     1.1766180000 
 H        3.7678300000    -0.6065560000     0.7762250000 
 H        3.5850220000    -0.0571370000    -1.6617410000 
 H        0.8518880000     1.3053780000    -2.1693710000 
 H        2.1477530000     1.0048590000    -3.4207190000 
 H        2.3933170000     2.6672050000    -0.8275030000 
 H        4.1735950000     2.2248390000    -3.1263990000 
 H        4.8181240000     2.5996100000    -1.6703480000 
*
