! RI PBE def2-SVP def2-SVP/J NBO PAL2
% maxcore 2000
% output
    # printlevel mini
    print[ P_Basis ] 0
    print[ P_SCFInfo ] 1
    print[ P_SCFIterInfo ] 1
    print[ P_OrbEn ] 0
    print[ P_Cartesian ] 0
end
*xyz 0 1
 C        2.6727610000    -1.2682710000     0.0578870000 
 O        2.3969690000     0.1042800000     0.1538270000 
 C        2.9047150000     0.8306990000    -0.9179600000 
 C        2.6696520000     2.3380230000    -0.8380670000 
 N        4.0326380000     2.5358970000    -1.3613630000 
 C        4.4093700000     1.1735970000    -0.9490930000 
 H        2.2156590000    -1.7555120000     0.9191420000 
 H        3.7524410000    -1.4685270000     0.0706160000 
 H        2.2509740000    -1.6983380000    -0.8610200000 
 H        2.5679040000     0.4047390000    -1.8726260000 
 H        2.5354080000     2.6339740000     0.2100700000 
 H        1.8714240000     2.7703600000    -1.4458460000 
 H        4.5605380000     3.2834690000    -0.9312590000 
 H        4.8284230000     1.1037090000     0.0639360000 
 H        5.0575140000     0.6441920000    -1.6522430000 
*
