! RI PBE def2-SVP def2-SVP/J NBO PAL2
% maxcore 2000
% output
    # printlevel mini
    print[ P_Basis ] 0
    print[ P_SCFInfo ] 1
    print[ P_SCFIterInfo ] 1
    print[ P_OrbEn ] 0
    print[ P_Cartesian ] 0
end
*xyz 0 1
 C        1.8868860000     0.7677620000     0.0676930000 
 O        3.0877690000     0.2796670000    -0.4632090000 
 C        3.2868590000    -1.0816960000    -0.1921980000 
 C        4.6124280000    -1.5236440000    -0.7435830000 
 C        5.1600910000    -0.9361800000    -1.9770900000 
 N        5.7639130000    -0.6377110000    -0.6757230000 
 H        1.8232690000     1.8272090000    -0.1809090000 
 H        1.8550400000     0.6550280000     1.1600680000 
 H        1.0182330000     0.2485880000    -0.3596820000 
 H        2.4797600000    -1.6865170000    -0.6355340000 
 H        3.2645880000    -1.2547540000     0.8962140000 
 H        4.8385620000    -2.5634760000    -0.5201820000 
 H        4.5793240000    -0.1564300000    -2.4571940000 
 H        5.7700130000    -1.5413040000    -2.6389940000 
 H        5.4441660000     0.2795490000    -0.3778770000 
*
