! RI PBE def2-SVP def2-SVP/J NBO PAL2
% maxcore 2000
% output
    # printlevel mini
    print[ P_Basis ] 0
    print[ P_SCFInfo ] 1
    print[ P_SCFIterInfo ] 1
    print[ P_OrbEn ] 0
    print[ P_Cartesian ] 0
end
*xyz 0 1
 C        4.0192470000     1.1966150000     0.3838830000 
 O        2.9445880000     0.6223440000    -0.3207880000 
 C        3.2585310000    -0.2952260000    -1.2545380000 
 C        4.4642280000    -0.7425190000    -1.6004380000 
 C        4.6488360000    -1.7719130000    -2.6642250000 
 N        5.4950910000    -1.2546520000    -3.7337970000 
 H        3.5859390000     1.9045450000     1.0884510000 
 H        4.6993600000     1.7236030000    -0.2942630000 
 H        4.5844860000     0.4336910000     0.9305980000 
 H        2.3577570000    -0.6699400000    -1.7319360000 
 H        5.3668410000    -0.3586510000    -1.1379300000 
 H        3.6597280000    -2.1205080000    -3.0015620000 
 H        5.1596250000    -2.6465900000    -2.2444080000 
 H        5.0383180000    -0.4733720000    -4.1886510000 
 H        5.6577250000    -1.9640280000    -4.4378960000 
*
