! RI PBE def2-SVP def2-SVP/J NBO PAL2
% maxcore 2000
% output
    # printlevel mini
    print[ P_Basis ] 0
    print[ P_SCFInfo ] 1
    print[ P_SCFIterInfo ] 1
    print[ P_OrbEn ] 0
    print[ P_Cartesian ] 0
end
*xyz 0 1
 C        1.5781470000    -0.6874200000    -0.7088360000 
 O        2.9188290000    -0.2666360000    -0.7746720000 
 C        3.2115530000     0.7464160000    -1.6227230000 
 C        2.3330610000     1.4118270000    -2.3708590000 
 C        4.6789570000     1.0355370000    -1.5846840000 
 N        5.4480880000    -0.1456090000    -1.9534380000 
 H        1.5470820000    -1.5178240000    -0.0051930000 
 H        1.2231380000    -1.0227060000    -1.6890220000 
 H        0.9289340000     0.1186940000    -0.3503640000 
 H        1.2717740000     1.2073240000    -2.3640360000 
 H        2.6866970000     2.1961650000    -3.0246220000 
 H        4.9148760000     1.4173750000    -0.5773010000 
 H        4.8904300000     1.8362520000    -2.2952230000 
 H        5.2141870000    -0.9059660000    -1.3266500000 
 H        6.4377380000     0.0362610000    -1.8434880000 
*
