! RI PBE def2-SVP def2-SVP/J NBO PAL2
% maxcore 2000
% output
    # printlevel mini
    print[ P_Basis ] 0
    print[ P_SCFInfo ] 1
    print[ P_SCFIterInfo ] 1
    print[ P_OrbEn ] 0
    print[ P_Cartesian ] 0
end
*xyz 0 1
 C        2.9531290000    -0.6299800000    -1.1648330000 
 O        2.2439960000    -0.3449580000     0.0299130000 
 C        2.9516710000    -0.0791730000     1.1468680000 
 C        2.3550030000     0.1967520000     2.3060960000 
 C        4.3857790000    -0.0996140000     1.0613420000 
 N        5.5348370000    -0.1174150000     0.9863410000 
 H        2.1932590000    -0.8099800000    -1.9223460000 
 H        3.5764700000    -1.5212280000    -1.0544400000 
 H        3.5775000000     0.2146170000    -1.4679470000 
 H        1.2753010000     0.2129880000     2.3742780000 
 H        2.9486660000     0.4055130000     3.1831970000 
*
