! RI PBE def2-SVP def2-SVP/J NBO PAL2
% maxcore 2000
% output
    # printlevel mini
    print[ P_Basis ] 0
    print[ P_SCFInfo ] 1
    print[ P_SCFIterInfo ] 1
    print[ P_OrbEn ] 0
    print[ P_Cartesian ] 0
end
*xyz 0 1
 C        2.3847010000     1.6288930000     1.8406280000 
 O        3.4702050000     2.0616390000     1.0683810000 
 C        3.2280480000     2.0720540000    -0.3293320000 
 C        2.4165240000     3.2824850000    -0.7521040000 
 C        4.5872690000     2.0390550000    -0.9962090000 
 N        5.2846110000     0.8131630000    -0.6538810000 
 H        2.7172930000     1.5953930000     2.8788460000 
 H        2.0555860000     0.6244310000     1.5412030000 
 H        1.5258820000     2.3090460000     1.7756410000 
 H        2.6950820000     1.1475720000    -0.5997790000 
 H        2.9503020000     4.2036590000    -0.5062870000 
 H        1.4454460000     3.3079120000    -0.2543300000 
 H        2.2336940000     3.2631410000    -1.8291510000 
 H        5.1238310000     2.9584610000    -0.7099630000 
 H        4.4398440000     2.0732160000    -2.0799220000 
 H        5.3947840000     0.7710260000     0.3522690000 
 H        6.2112080000     0.8021440000    -1.0598200000 
*
