! RI PBE def2-SVP def2-SVP/J NBO PAL2
% maxcore 2000
% output
    # printlevel mini
    print[ P_Basis ] 0
    print[ P_SCFInfo ] 1
    print[ P_SCFIterInfo ] 1
    print[ P_OrbEn ] 0
    print[ P_Cartesian ] 0
end
*xyz 0 1
 C        1.6917350000    -0.4556060000    -0.0623350000 
 O        3.0038220000     0.0134380000    -0.2336500000 
 C        3.0874030000     1.4067140000    -0.1608770000 
 C        4.5490030000     1.7788690000    -0.3607610000 
 C        4.7540660000     3.2153860000    -0.3039860000 
 N        4.8967860000     4.3548650000    -0.2557670000 
 H        1.7224610000    -1.5422980000    -0.1347480000 
 H        1.0211620000    -0.0639000000    -0.8388120000 
 H        1.2899760000    -0.1734740000     0.9200150000 
 H        2.7345410000     1.7730490000     0.8141630000 
 H        2.4678270000     1.8804140000    -0.9362100000 
 H        4.8937230000     1.4057650000    -1.3288030000 
 H        5.1585850000     1.2992680000     0.4096600000 
*
