! RI PBE def2-SVP def2-SVP/J NBO PAL2
% maxcore 2000
% output
    # printlevel mini
    print[ P_Basis ] 0
    print[ P_SCFInfo ] 1
    print[ P_SCFIterInfo ] 1
    print[ P_OrbEn ] 0
    print[ P_Cartesian ] 0
end
*xyz 0 1
 C        4.7073760000     1.0120410000    -0.5794540000 
 O        5.2444820000    -0.1359860000     0.0451410000 
 N        4.5515060000    -0.3991310000     1.1950630000 
 C        5.0025140000    -1.4302250000     1.7947240000 
 C        4.3911270000    -1.8596830000     3.0304600000 
 C        4.8036830000    -2.9249090000     3.7158210000 
 H        5.3005680000     1.1634310000    -1.4808290000 
 H        4.7916250000     1.8862240000     0.0716250000 
 H        3.6587930000     0.8565350000    -0.8468310000 
 H        5.8447040000    -1.9897970000     1.3831340000 
 H        3.5588140000    -1.2577120000     3.3823220000 
 H        5.6346020000    -3.5320520000     3.3714760000 
 H        4.3252070000    -3.2229370000     4.6402360000 
*
