! RI PBE def2-SVP def2-SVP/J NBO PAL2
% maxcore 2000
% output
    # printlevel mini
    print[ P_Basis ] 0
    print[ P_SCFInfo ] 1
    print[ P_SCFIterInfo ] 1
    print[ P_OrbEn ] 0
    print[ P_Cartesian ] 0
end
*xyz 0 1
 C        1.3253430000     0.6637850000     0.3079160000 
 O        2.7040000000     0.3953640000     0.1341850000 
 N        3.0719710000    -0.6473940000     0.9292890000 
 C        4.3128750000    -0.9165540000     0.7954460000 
 C        4.8974030000    -1.9707550000     1.5364770000 
 C        5.4573750000    -2.8513340000     2.1332520000 
 H        1.1043850000     1.5031710000    -0.3502860000 
 H        1.1104500000     0.9358610000     1.3440820000 
 H        0.7224080000    -0.2018750000     0.0232760000 
 H        4.9394200000    -0.3420610000     0.1119300000 
 H        5.9367800000    -3.6353170000     2.6704320000 
*
