! RI PBE def2-SVP def2-SVP/J NBO PAL2
% maxcore 2000
% output
    # printlevel mini
    print[ P_Basis ] 0
    print[ P_SCFInfo ] 1
    print[ P_SCFIterInfo ] 1
    print[ P_OrbEn ] 0
    print[ P_Cartesian ] 0
end
*xyz 0 1
 N        0.9741260000     0.1954840000    -0.0333610000 
 C        2.4024890000     0.1015290000     0.0478020000 
 C        3.2166410000    -0.8508750000    -0.7878390000 
 C        3.2394260000     0.6318080000    -1.0614250000 
 C        4.4802400000     1.4241580000    -0.7730940000 
 O        4.2279000000     2.7528900000    -0.3653070000 
 H        0.5360630000    -0.6052580000     0.4064890000 
 H        0.6677760000     0.2105100000    -0.9981060000 
 H        2.7781750000     0.3016430000     1.0466340000 
 H        2.6846440000    -1.4840170000    -1.4882890000 
 H        4.1054790000    -1.2998300000    -0.3577730000 
 H        2.6937690000     0.9509860000    -1.9484360000 
 H        5.1438300000     1.4045490000    -1.6501370000 
 H        5.0266720000     0.9606500000     0.0528010000 
 H        3.6567800000     3.1672720000    -1.0168690000 
*
