! RI PBE def2-SVP def2-SVP/J NBO PAL2
% maxcore 2000
% output
    # printlevel mini
    print[ P_Basis ] 0
    print[ P_SCFInfo ] 1
    print[ P_SCFIterInfo ] 1
    print[ P_OrbEn ] 0
    print[ P_Cartesian ] 0
end
*xyz 0 1
 N        0.9563220000    -0.0978600000     0.0094440000 
 C        2.3936390000     0.0032560000     0.1269690000 
 C        2.9900050000     1.1097700000     1.0017650000 
 C        4.3748560000     0.5637970000     1.2875350000 
 O        4.2369790000    -0.8517540000     1.3379340000 
 C        2.9951250000    -1.2365880000     0.7805680000 
 H        0.5741190000     0.6997280000    -0.4820680000 
 H        0.5258640000    -0.1213410000     0.9271460000 
 H        2.8005330000     0.0999600000    -0.8859770000 
 H        2.4068410000     1.1926570000     1.9255390000 
 H        3.0043310000     2.0872440000     0.5155710000 
 H        4.7931470000     0.9074690000     2.2370880000 
 H        5.0793570000     0.8348750000     0.4893830000 
 H        2.3240810000    -1.5998220000     1.5732180000 
 H        3.1494920000    -2.0530000000     0.0704740000 
*
