! RI PBE def2-SVP def2-SVP/J NBO PAL2
% maxcore 2000
% output
    # printlevel mini
    print[ P_Basis ] 0
    print[ P_SCFInfo ] 1
    print[ P_SCFIterInfo ] 1
    print[ P_OrbEn ] 0
    print[ P_Cartesian ] 0
end
*xyz 0 1
 N        0.9504500000     0.0336630000     0.0326240000 
 C        2.3849160000     0.1289350000    -0.0060940000 
 C        3.1842380000     1.1672040000     0.8266020000 
 C        4.2350560000     0.0833810000     1.0905910000 
 O        5.2682090000     0.2087270000     0.1354840000 
 C        3.1779080000    -0.9740980000     0.7148580000 
 H        0.5162770000     0.7897130000    -0.4817900000 
 H        0.6095400000     0.0801800000     0.9858640000 
 H        2.6962320000     0.1841780000    -1.0512280000 
 H        2.6479390000     1.4289470000     1.7426850000 
 H        3.5409580000     2.0751190000     0.3377120000 
 H        4.6493170000     0.0282690000     2.1035360000 
 H        5.7933030000    -0.5956800000     0.1537100000 
 H        2.6383670000    -1.3203290000     1.6014600000 
 H        3.5060910000    -1.8411170000     0.1373960000 
*
