! RI PBE def2-SVP def2-SVP/J NBO PAL2
% maxcore 2000
% output
    # printlevel mini
    print[ P_Basis ] 0
    print[ P_SCFInfo ] 1
    print[ P_SCFIterInfo ] 1
    print[ P_OrbEn ] 0
    print[ P_Cartesian ] 0
end
*xyz 0 1
 N        0.9258460000    -0.0251970000    -0.1097690000 
 C        2.3597960000     0.0099000000    -0.0251100000 
 C        2.7982190000     0.1238080000     1.4202170000 
 O        4.1939350000     0.1199440000     1.6106030000 
 C        3.2178820000    -0.7368150000    -1.0115900000 
 C        3.1094890000     0.7651280000    -1.0636170000 
 H        0.5688790000    -0.9598150000     0.0478130000 
 H        0.5974980000     0.2851050000    -1.0134890000 
 H        2.3160070000    -0.6763910000     2.0005730000 
 H        2.4294250000     1.0729520000     1.8157640000 
 H        4.5163590000    -0.7744150000     1.4790190000 
 H        2.7044790000    -1.3106810000    -1.7739450000 
 H        4.1683540000    -1.1536760000    -0.6981550000 
 H        2.5470300000     1.2108540000    -1.8764520000 
 H        3.9724830000     1.3331190000    -0.7389630000 
*
