! RI PBE def2-SVP def2-SVP/J NBO PAL2
% maxcore 2000
% output
    # printlevel mini
    print[ P_Basis ] 0
    print[ P_SCFInfo ] 1
    print[ P_SCFIterInfo ] 1
    print[ P_OrbEn ] 0
    print[ P_Cartesian ] 0
end
*xyz 0 1
 N        3.5528150000    -0.1626620000     0.8863070000 
 C        2.4156020000    -0.1004260000    -0.0201550000 
 C        2.8448030000     0.3677040000    -1.3788820000 
 C        1.8519980000     0.9973490000    -2.3178690000 
 C        2.9095790000     1.8325830000    -1.6898260000 
 O        3.8978100000     2.3208550000    -2.5404030000 
 H        3.2756610000    -0.5347870000     1.7859450000 
 H        3.9193300000     0.7672570000     1.0511580000 
 H        1.5973590000     0.5494560000     0.3328840000 
 H        1.9951850000    -1.1084370000    -0.1011630000 
 H        3.6196750000    -0.2322650000    -1.8457270000 
 H        0.8293790000     1.1241400000    -1.9824560000 
 H        1.9702500000     0.7927570000    -3.3740800000 
 H        2.5958240000     2.5229400000    -0.9068560000 
 H        4.7411280000     2.2711350000    -2.0824770000 
*
