! RI PBE def2-SVP def2-SVP/J NBO PAL2
% maxcore 2000
% output
    # printlevel mini
    print[ P_Basis ] 0
    print[ P_SCFInfo ] 1
    print[ P_SCFIterInfo ] 1
    print[ P_OrbEn ] 0
    print[ P_Cartesian ] 0
end
*xyz 0 1
 N        1.0632160000    -0.3690980000     0.0313990000 
 C        2.4680630000    -0.0190580000    -0.0627800000 
 C        2.9271220000    -0.1447780000    -1.4904600000 
 C        4.4299400000    -0.0430720000    -1.7673210000 
 C        4.2773350000    -1.4552460000    -2.3358190000 
 O        2.8984650000    -1.5152070000    -1.9469870000 
 H        0.7431680000    -0.3273020000     0.9901450000 
 H        0.9348530000    -1.3230770000    -0.2861190000 
 H        3.1321480000    -0.6345790000     0.5662860000 
 H        2.5989510000     1.0246810000     0.2463330000 
 H        2.2972980000     0.4814490000    -2.1335380000 
 H        5.0423700000     0.0208020000    -0.8668870000 
 H        4.7370560000     0.7293020000    -2.4705310000 
 H        4.8714430000    -2.2408950000    -1.8596140000 
 H        4.3920590000    -1.5313430000    -3.4225050000 
*
