! RI PBE def2-SVP def2-SVP/J NBO PAL2
% maxcore 2000
% output
    # printlevel mini
    print[ P_Basis ] 0
    print[ P_SCFInfo ] 1
    print[ P_SCFIterInfo ] 1
    print[ P_OrbEn ] 0
    print[ P_Cartesian ] 0
end
*xyz 0 1
 N        1.3115000000    -0.5269260000     1.0201700000 
 C        2.3355510000    -0.0354170000     0.1168260000 
 C        3.0370430000    -1.1438820000    -0.6343820000 
 O        4.0588240000    -0.6643800000    -1.4614490000 
 C        3.2148400000    -2.5067120000    -0.0393930000 
 C        2.2729120000    -2.2827200000    -1.1966860000 
 H        0.6502280000     0.2033220000     1.2441160000 
 H        1.7147200000    -0.8422790000     1.8924330000 
 H        3.1082020000     0.5739440000     0.6160780000 
 H        1.8635880000     0.6148000000    -0.6259020000 
 H        4.7907950000    -0.3876090000    -0.9021070000 
 H        2.7759550000    -2.7260930000     0.9262460000 
 H        4.1513170000    -3.0090720000    -0.2484920000 
 H        1.2124110000    -2.3205880000    -0.9832150000 
 H        2.5833240000    -2.6373760000    -2.1709450000 
*
