! RI PBE def2-SVP def2-SVP/J NBO PAL2
% maxcore 2000
% output
    # printlevel mini
    print[ P_Basis ] 0
    print[ P_SCFInfo ] 1
    print[ P_SCFIterInfo ] 1
    print[ P_OrbEn ] 0
    print[ P_Cartesian ] 0
end
*xyz 0 1
 N        4.7415490000     1.7264030000    -1.4699630000 
 C        4.2161490000     0.9548550000    -0.7998310000 
 C        3.5671620000    -0.0227310000     0.0619340000 
 C        4.2885710000    -1.3479130000     0.0789510000 
 C        3.5586070000    -2.5848000000     0.3270530000 
 O        3.9945080000    -2.2353020000    -0.9773190000 
 H        2.5396330000    -0.1700150000    -0.2810160000 
 H        3.5245370000     0.3889310000     1.0755710000 
 H        5.3417480000    -1.2985300000     0.3486970000 
 H        2.4827450000    -2.5473740000     0.4826230000 
 H        4.0709710000    -3.4287130000     0.7807000000 
*
