! RI PBE def2-SVP def2-SVP/J NBO PAL2
% maxcore 2000
% output
    # printlevel mini
    print[ P_Basis ] 0
    print[ P_SCFInfo ] 1
    print[ P_SCFIterInfo ] 1
    print[ P_OrbEn ] 0
    print[ P_Cartesian ] 0
end
*xyz 0 1
 N        1.6106680000     0.6446070000     0.9283580000 
 C        2.6711150000     0.1550900000     0.0580350000 
 C        3.1091900000    -1.2034370000     0.4935340000 
 C        4.3604610000    -1.5429170000     0.7824220000 
 C        4.7839700000    -2.9106300000     1.2013990000 
 O        5.7405290000    -3.4704390000     0.3183730000 
 H        1.2453370000     1.5252540000     0.5892080000 
 H        1.9690790000     0.8046520000     1.8618360000 
 H        3.5494060000     0.8149310000    -0.0072570000 
 H        2.2533620000     0.0830720000    -0.9534610000 
 H        2.3137570000    -1.9411140000     0.5926700000 
 H        5.1565130000    -0.8047140000     0.6923330000 
 H        3.9039000000    -3.5601120000     1.3016720000 
 H        5.2800830000    -2.8759760000     2.1757670000 
 H        5.3665290000    -3.4462780000    -0.5666890000 
*
