! RI PBE def2-SVP def2-SVP/J NBO PAL2
% maxcore 2000
% output
    # printlevel mini
    print[ P_Basis ] 0
    print[ P_SCFInfo ] 1
    print[ P_SCFIterInfo ] 1
    print[ P_OrbEn ] 0
    print[ P_Cartesian ] 0
end
*xyz 0 1
 N        0.9795940000    -0.1525960000     0.1085970000 
 C        2.4299670000    -0.0319520000     0.0251140000 
 C        2.9447950000    -0.6155800000    -1.2045670000 
 C        3.3584650000    -1.1268300000    -2.2119950000 
 C        3.8915000000    -1.7381620000    -3.4223460000 
 O        4.3983260000    -3.0427040000    -3.2265710000 
 H        0.6567070000     0.1906630000     1.0048610000 
 H        0.7093370000    -1.1259970000     0.0405710000 
 H        2.9702340000    -0.4951190000     0.8664580000 
 H        2.6871380000     1.0327440000     0.0437610000 
 H        4.6578140000    -1.0758460000    -3.8489970000 
 H        3.0979790000    -1.8300840000    -4.1683730000 
 H        4.9922430000    -3.0176360000    -2.4716130000 
*
