! RI PBE def2-SVP def2-SVP/J NBO PAL2
% maxcore 2000
% output
    # printlevel mini
    print[ P_Basis ] 0
    print[ P_SCFInfo ] 1
    print[ P_SCFIterInfo ] 1
    print[ P_OrbEn ] 0
    print[ P_Cartesian ] 0
end
*xyz 0 1
 N        1.2938280000     0.0439840000     0.3996780000 
 C        2.6290470000    -0.0740740000    -0.1718420000 
 C        2.9390790000    -1.4650930000    -0.7111820000 
 O        2.7332340000    -2.4615020000     0.2722260000 
 C        2.8262580000     1.0290940000    -1.1658280000 
 C        3.2405250000     0.9068930000    -2.4196320000 
 H        1.1249410000    -0.7551330000     1.0012750000 
 H        0.6041450000     0.0001130000    -0.3431960000 
 H        3.3347170000     0.1138450000     0.6544910000 
 H        3.9633600000    -1.5084100000    -1.1035610000 
 H        2.2551440000    -1.7067600000    -1.5296990000 
 H        3.4350250000    -2.3922780000     0.9246870000 
 H        2.5721120000     2.0141620000    -0.7810210000 
 H        3.4966350000    -0.0493250000    -2.8623700000 
 H        3.3429380000     1.7764840000    -3.0584340000 
*
