! RI PBE def2-SVP def2-SVP/J NBO PAL2
% maxcore 2000
% output
    # printlevel mini
    print[ P_Basis ] 0
    print[ P_SCFInfo ] 1
    print[ P_SCFIterInfo ] 1
    print[ P_OrbEn ] 0
    print[ P_Cartesian ] 0
end
*xyz 0 1
 N        1.0266130000     0.1028000000    -0.0015290000 
 C        2.4780990000     0.0295500000    -0.0385770000 
 C        3.0261850000    -1.3235020000    -0.5219500000 
 O        4.4259290000    -1.3907330000    -0.5046660000 
 C        3.0242680000     1.0888820000    -0.8824640000 
 C        3.5140550000     1.9015960000    -1.6188180000 
 H        0.6562040000    -0.6423270000     0.5761770000 
 H        0.6426950000    -0.0068330000    -0.9326530000 
 H        2.8514730000     0.1914500000     0.9798460000 
 H        2.6168740000    -1.5266690000    -1.5229880000 
 H        2.6662980000    -2.1042580000     0.1537150000 
 H        4.7587180000    -0.6750550000    -1.0575000000 
 H        3.9300990000     2.6475870000    -2.2543920000 
*
