! RI PBE def2-SVP def2-SVP/J NBO PAL2
% maxcore 2000
% output
    # printlevel mini
    print[ P_Basis ] 0
    print[ P_SCFInfo ] 1
    print[ P_SCFIterInfo ] 1
    print[ P_OrbEn ] 0
    print[ P_Cartesian ] 0
end
*xyz 0 1
 N        2.8442640000     0.4096640000    -1.2114350000 
 C        2.4431140000    -0.1362280000     0.0680020000 
 C        2.9819160000     0.7259350000     1.2101710000 
 O        2.4799520000     0.2974160000     2.4596820000 
 C        4.4445520000     0.7570700000     1.1944130000 
 C        5.6453020000     0.7300550000     1.1768510000 
 H        2.3857820000    -0.0747640000    -1.9711170000 
 H        3.8436980000     0.3099970000    -1.3429880000 
 H        2.7616430000    -1.1763320000     0.2473590000 
 H        1.3534000000    -0.1102430000     0.1424790000 
 H        2.6099370000     1.7446310000     1.0660320000 
 H        2.9608930000    -0.4933950000     2.7205720000 
 H        6.7099580000     0.7268250000     1.1732770000 
*
