! RI PBE def2-SVP def2-SVP/J NBO PAL2
% maxcore 2000
% output
    # printlevel mini
    print[ P_Basis ] 0
    print[ P_SCFInfo ] 1
    print[ P_SCFIterInfo ] 1
    print[ P_OrbEn ] 0
    print[ P_Cartesian ] 0
end
*xyz 0 1
 N        0.5527170000    -0.4906710000     1.4900080000 
 C        0.8292550000    -0.5808070000     0.0679010000 
 C        2.3143730000    -0.5404140000    -0.1809910000 
 O        2.7836880000     0.7401790000     0.2035760000 
 C        4.1021910000     0.9704880000     0.0793130000 
 C        5.0413860000     0.1443570000    -0.3720870000 
 H       -0.4436280000    -0.5080830000     1.6641990000 
 H        0.9045520000     0.3885040000     1.8490980000 
 H        0.3558490000     0.2085270000    -0.5366930000 
 H        0.4563410000    -1.5401810000    -0.3038290000 
 H        2.5357140000    -0.7086920000    -1.2421420000 
 H        2.8198070000    -1.3095220000     0.4149780000 
 H        4.3395470000     1.9772940000     0.4071990000 
 H        4.8413950000    -0.8646150000    -0.7049320000 
 H        6.0638330000     0.4933440000    -0.4081990000 
*
