! RI PBE def2-SVP def2-SVP/J NBO PAL2
% maxcore 2000
% output
    # printlevel mini
    print[ P_Basis ] 0
    print[ P_SCFInfo ] 1
    print[ P_SCFIterInfo ] 1
    print[ P_OrbEn ] 0
    print[ P_Cartesian ] 0
end
*xyz 0 1
 N        0.9920230000    -0.1193350000     0.0526460000 
 C        2.3184210000     0.1504360000    -0.0774080000 
 O        2.8497280000     1.0495410000     0.5419750000 
 C        3.0996470000    -0.7105080000    -1.0106830000 
 C        2.8064430000    -2.1782480000    -1.1774290000 
 C        2.5123710000    -1.2385010000    -2.2931490000 
 H        0.4540860000     0.4692040000     0.6634200000 
 H        0.5228850000    -0.8346710000    -0.4695710000 
 H        4.1387840000    -0.4105440000    -1.0329220000 
 H        1.9809800000    -2.5944190000    -0.6127930000 
 H        3.6563400000    -2.8418860000    -1.2716910000 
 H        1.4801130000    -0.9954480000    -2.5143760000 
 H        3.1585780000    -1.2495210000    -3.1614180000 
*
