! RI PBE def2-SVP def2-SVP/J NBO PAL2
% maxcore 2000
% output
    # printlevel mini
    print[ P_Basis ] 0
    print[ P_SCFInfo ] 1
    print[ P_SCFIterInfo ] 1
    print[ P_OrbEn ] 0
    print[ P_Cartesian ] 0
end
*xyz 0 1
 N        2.7095120000     1.6204770000    -0.1254140000 
 C        2.3357460000     0.3355260000     0.0726370000 
 O        1.3610960000     0.0224660000     0.7210170000 
 C        3.2096630000    -0.7073640000    -0.6191320000 
 C        4.6360780000    -0.3203570000    -0.8227730000 
 C        5.1925400000    -0.0678620000    -2.0008830000 
 H        2.1444760000     2.3526240000     0.2675410000 
 H        3.5183960000     1.8474320000    -0.6760680000 
 H        2.7333130000    -0.9240870000    -1.5810830000 
 H        3.1265520000    -1.6103900000    -0.0105770000 
 H        5.2427670000    -0.2339370000     0.0767270000 
 H        4.6255390000    -0.1494010000    -2.9236130000 
 H        6.2355210000     0.2141640000    -2.0876790000 
*
