! RI PBE def2-SVP def2-SVP/J NBO PAL2
% maxcore 2000
% output
    # printlevel mini
    print[ P_Basis ] 0
    print[ P_SCFInfo ] 1
    print[ P_SCFIterInfo ] 1
    print[ P_OrbEn ] 0
    print[ P_Cartesian ] 0
end
*xyz 0 1
 O        1.2852900000     0.1477610000     0.4432330000 
 C        2.4324450000     0.0661130000     0.0798440000 
 C        3.2777830000    -1.1852490000    -0.1364490000 
 C        4.6021280000    -0.6505510000    -0.5833160000 
 C        4.5258300000     0.6795770000    -0.6163720000 
 N        3.2599620000     1.1193820000    -0.2304090000 
 H        2.7869460000    -1.8271680000    -0.8743050000 
 H        3.3216900000    -1.7547060000     0.7969430000 
 H        5.4696020000    -1.2395340000    -0.8354170000 
 H        5.2829010000     1.4004040000    -0.8897460000 
 H        2.9598220000     2.0767620000    -0.1758070000 
*
