! RI PBE def2-SVP def2-SVP/J NBO PAL2
% maxcore 2000
% output
    # printlevel mini
    print[ P_Basis ] 0
    print[ P_SCFInfo ] 1
    print[ P_SCFIterInfo ] 1
    print[ P_OrbEn ] 0
    print[ P_Cartesian ] 0
end
*xyz 0 1
 O        1.2181940000    -0.1417040000     0.7108440000 
 C        2.3381790000    -0.0783590000     0.2850790000 
 C        3.1642410000     1.1788210000     0.0707740000 
 C        4.3458800000     0.6791630000    -0.7581850000 
 N        4.5385220000    -0.7290290000    -0.3976460000 
 C        3.2041220000    -1.2539810000    -0.1561060000 
 H        3.4905810000     1.5337410000     1.0551070000 
 H        2.5610570000     1.9677340000    -0.3802440000 
 H        5.2663020000     1.2407010000    -0.5979100000 
 H        4.1098000000     0.7366570000    -1.8261990000 
 H        5.0780720000    -0.7812970000     0.4575620000 
 H        3.1883210000    -2.0587700000     0.5800080000 
 H        2.7722400000    -1.6552780000    -1.0828840000 
*
