! RI PBE def2-SVP def2-SVP/J NBO PAL2
% maxcore 2000
% output
    # printlevel mini
    print[ P_Basis ] 0
    print[ P_SCFInfo ] 1
    print[ P_SCFIterInfo ] 1
    print[ P_OrbEn ] 0
    print[ P_Cartesian ] 0
end
*xyz 0 1
 O        0.9394050000     0.0376850000    -0.0450580000 
 C        2.1372110000     0.1021700000    -0.0486520000 
 C        3.0367420000     1.2808200000    -0.0520920000 
 C        4.2714230000     0.7826720000    -0.0554350000 
 N        4.3222390000    -0.6694630000    -0.0546500000 
 C        3.1196040000    -1.0698860000    -0.0508260000 
 H        2.7174930000     2.3105940000    -0.0518110000 
 H        5.2141850000     1.3119390000    -0.0585750000 
 H        2.8318870000    -2.1160220000    -0.0493010000 
*
