! RI PBE def2-SVP def2-SVP/J NBO PAL2
% maxcore 2000
% output
    # printlevel mini
    print[ P_Basis ] 0
    print[ P_SCFInfo ] 1
    print[ P_SCFIterInfo ] 1
    print[ P_OrbEn ] 0
    print[ P_Cartesian ] 0
end
*xyz 0 1
 O        0.9962810000     0.0238960000    -0.0665460000 
 C        2.3545290000     0.0592840000    -0.0603510000 
 C        3.1860230000     1.1536390000    -0.0558540000 
 N        4.4728770000     0.6748140000    -0.0503300000 
 C        4.4640870000    -0.6815990000    -0.0512620000 
 C        3.1572350000    -1.1035400000    -0.0574780000 
 H        0.6585570000     0.9224820000    -0.0674240000 
 H        2.9707140000     2.2099980000    -0.0561370000 
 H        5.2954590000     1.2473310000    -0.0462130000 
 H        5.3804950000    -1.2491620000    -0.0474730000 
 H        2.8071640000    -2.1231430000    -0.0597430000 
*
