! RI PBE def2-SVP def2-SVP/J NBO PAL2
% maxcore 2000
% output
    # printlevel mini
    print[ P_Basis ] 0
    print[ P_SCFInfo ] 1
    print[ P_SCFIterInfo ] 1
    print[ P_OrbEn ] 0
    print[ P_Cartesian ] 0
end
*xyz 0 1
 O        1.2053640000    -0.0766680000    -0.5187510000 
 C        2.3666800000    -0.0005880000    -0.1872380000 
 N        3.2059170000    -1.0480690000     0.0868930000 
 C        4.5281590000    -0.6353960000     0.4541610000 
 C        4.4264200000     0.8546430000     0.3782220000 
 C        3.1997640000     1.2152440000     0.0142350000 
 H        2.8981680000    -2.0018030000     0.0282970000 
 H        5.2935970000    -1.0174150000    -0.2342500000 
 H        4.8051160000    -0.9641840000     1.4645760000 
 H        5.2635080000     1.5035180000     0.5985880000 
 H        2.8104260000     2.2123080000    -0.1289330000 
*
