! RI PBE def2-SVP def2-SVP/J NBO PAL2
% maxcore 2000
% output
    # printlevel mini
    print[ P_Basis ] 0
    print[ P_SCFInfo ] 1
    print[ P_SCFIterInfo ] 1
    print[ P_OrbEn ] 0
    print[ P_Cartesian ] 0
end
*xyz 0 1
 O        2.9290990000     0.4807630000     0.9277420000 
 C        2.3887010000    -0.2084790000     0.1080500000 
 C        2.9196040000    -0.5224590000    -1.2661720000 
 C        4.4280960000    -0.3092520000    -1.4279730000 
 C        4.5625240000    -1.8236100000    -1.1952970000 
 N        3.1164230000    -1.9747590000    -1.4586190000 
 H        1.4217760000    -0.7133510000     0.3416910000 
 H        2.2511560000    -0.0651470000    -2.0079410000 
 H        4.8864100000     0.3520370000    -0.6951970000 
 H        4.7048350000    -0.0052180000    -2.4361590000 
 H        4.8630180000    -2.0639100000    -0.1693930000 
 H        5.1942840000    -2.3805670000    -1.8904200000 
 H        2.6044710000    -2.5783380000    -0.8237230000 
*
