! RI PBE def2-SVP def2-SVP/J NBO PAL2
% maxcore 2000
% output
    # printlevel mini
    print[ P_Basis ] 0
    print[ P_SCFInfo ] 1
    print[ P_SCFIterInfo ] 1
    print[ P_OrbEn ] 0
    print[ P_Cartesian ] 0
end
*xyz 0 1
 O        2.7048240000     1.3475090000     0.2294620000 
 C        2.2471040000     0.1247410000    -0.3130290000 
 C        3.0357670000    -0.9984210000     0.3273200000 
 C        4.4949870000    -0.9726690000    -0.0272230000 
 C        5.2764520000    -2.2205640000    -0.0559850000 
 N        4.9497730000    -1.5258670000    -1.3017860000 
 H        2.3031480000     2.0713620000    -0.2551740000 
 H        2.3876820000     0.1023320000    -1.4029500000 
 H        1.1764060000    -0.0157530000    -0.1098470000 
 H        2.6011690000    -1.9569410000     0.0189820000 
 H        2.9168070000    -0.9271570000     1.4140820000 
 H        5.0078360000    -0.0551630000     0.2444910000 
 H        4.7534300000    -3.1445270000     0.1743620000 
 H        6.3277580000    -2.2160540000     0.2103410000 
 H        4.1808470000    -2.0001200000    -1.7660460000 
*
