! RI PBE def2-SVP def2-SVP/J NBO PAL2
% maxcore 2000
% output
    # printlevel mini
    print[ P_Basis ] 0
    print[ P_SCFInfo ] 1
    print[ P_SCFIterInfo ] 1
    print[ P_OrbEn ] 0
    print[ P_Cartesian ] 0
end
*xyz 0 1
 O        0.8640040000     0.0578370000     0.0327450000 
 C        2.0645920000     0.0199350000     0.0744930000 
 C        2.8270060000    -0.7998870000     0.9757010000 
 C        3.4797370000    -1.4780770000     1.7212200000 
 C        2.8799020000     0.8424040000    -0.8297040000 
 N        3.5112440000     1.4891450000    -1.5407070000 
 H        4.0495150000    -2.0845680000     2.3879620000 
*
