! RI PBE def2-SVP def2-SVP/J NBO PAL2
% maxcore 2000
% output
    # printlevel mini
    print[ P_Basis ] 0
    print[ P_SCFInfo ] 1
    print[ P_SCFIterInfo ] 1
    print[ P_OrbEn ] 0
    print[ P_Cartesian ] 0
end
*xyz 0 1
 O        0.9777680000     0.1207920000     0.0752250000 
 C        2.1727410000    -0.0036400000     0.0456250000 
 C        2.8626900000    -1.2790650000     0.2886040000 
 C        4.1964440000    -1.3365310000     0.2380010000 
 C        4.9379670000    -2.5254080000     0.4599850000 
 N        5.5590810000    -3.4793520000     0.6368530000 
 H        2.8415340000     0.8565040000    -0.1719340000 
 H        2.2517110000    -2.1485180000     0.5053780000 
 H        4.7773640000    -0.4440820000     0.0177630000 
*
