! RI PBE def2-SVP def2-SVP/J NBO PAL2
% maxcore 2000
% output
    # printlevel mini
    print[ P_Basis ] 0
    print[ P_SCFInfo ] 1
    print[ P_SCFIterInfo ] 1
    print[ P_OrbEn ] 0
    print[ P_Cartesian ] 0
end
*xyz 0 1
 O        0.9077260000     0.0509740000     0.0757180000 
 C        2.1061840000    -0.0170550000     0.0775030000 
 C        2.8257490000    -1.2727360000     0.1074810000 
 C        3.4627150000    -2.2974380000     0.1319550000 
 C        4.1724790000    -3.4647000000     0.1598300000 
 N        4.7755840000    -4.4491420000     0.1833410000 
 H        2.7519630000     0.8792860000     0.0559620000 
*
