! RI PBE def2-SVP def2-SVP/J NBO PAL2
% maxcore 2000
% output
    # printlevel mini
    print[ P_Basis ] 0
    print[ P_SCFInfo ] 1
    print[ P_SCFIterInfo ] 1
    print[ P_OrbEn ] 0
    print[ P_Cartesian ] 0
end
*xyz 0 1
 O        2.4198440000     0.8767600000    -0.8872290000 
 C        2.0753620000     0.1126550000    -0.0290200000 
 C        3.0207090000    -0.6324010000     0.8659100000 
 C        4.4791460000    -0.3133750000     0.5656450000 
 C        5.3850320000    -1.0400890000     1.4386900000 
 N        6.0855950000    -1.6237840000     2.1386330000 
 H        0.9995640000    -0.0908850000     0.1549990000 
 H        2.8145680000    -1.7038170000     0.7590810000 
 H        2.7636140000    -0.3924190000     1.9042740000 
 H        4.6619770000     0.7584270000     0.6751870000 
 H        4.7133790000    -0.5574810000    -0.4734620000 
*
