! RI PBE def2-SVP def2-SVP/J NBO PAL2
% maxcore 2000
% output
    # printlevel mini
    print[ P_Basis ] 0
    print[ P_SCFInfo ] 1
    print[ P_SCFIterInfo ] 1
    print[ P_OrbEn ] 0
    print[ P_Cartesian ] 0
end
*xyz 0 1
 O        1.6578160000    -1.4133170000     0.0450220000 
 C        2.3843590000    -0.2108450000    -0.0793660000 
 C        2.9051360000     0.1603160000     1.2625350000 
 C        4.1598960000     0.5462070000     1.4863760000 
 C        4.6237060000     0.9519360000     2.7673580000 
 N        5.0229590000     1.2862410000     3.7952340000 
 H        1.1607560000    -1.5584140000    -0.7632640000 
 H        1.7341030000     0.6055400000    -0.4301950000 
 H        3.2129930000    -0.3049220000    -0.7938950000 
 H        2.1911700000     0.1209330000     2.0800240000 
 H        4.8918060000     0.5712150000     0.6844700000 
*
