! RI PBE def2-SVP def2-SVP/J NBO PAL2
% maxcore 2000
% output
    # printlevel mini
    print[ P_Basis ] 0
    print[ P_SCFInfo ] 1
    print[ P_SCFIterInfo ] 1
    print[ P_OrbEn ] 0
    print[ P_Cartesian ] 0
end
*xyz 0 1
 O        1.0328760000    -0.0668990000    -0.0735030000 
 C        2.4405320000    -0.0814450000    -0.0718650000 
 C        2.9122240000    -1.4449080000     0.0828320000 
 C        3.3328620000    -2.5661320000     0.2100420000 
 C        3.8098710000    -3.8392710000     0.3544690000 
 N        4.2168130000    -4.9134900000     0.4763050000 
 H        0.7452220000     0.8440660000    -0.1768210000 
 H        2.8566580000     0.5160860000     0.7521330000 
 H        2.8566420000     0.3162920000    -1.0087930000 
*
