! RI PBE def2-SVP def2-SVP/J NBO PAL2
% maxcore 2000
% output
    # printlevel mini
    print[ P_Basis ] 0
    print[ P_SCFInfo ] 1
    print[ P_SCFIterInfo ] 1
    print[ P_OrbEn ] 0
    print[ P_Cartesian ] 0
end
*xyz 0 1
 O        2.7655300000     1.1313010000    -0.7326200000 
 C        2.3541740000    -0.0084790000    -0.0029530000 
 C        2.9053830000    -1.2304910000    -0.7006780000 
 C        4.4345210000    -1.2456880000    -0.7525800000 
 C        5.0343820000    -1.3297910000     0.5701710000 
 N        5.4834420000    -1.3962270000     1.6267780000 
 H        2.5553670000     1.9182920000    -0.2258640000 
 H        1.2591490000    -0.0771170000     0.0351510000 
 H        2.7261290000     0.0286610000     1.0296240000 
 H        2.5307230000    -1.2536080000    -1.7275730000 
 H        2.5387620000    -2.1276210000    -0.1954040000 
 H        4.7939260000    -0.3328960000    -1.2342950000 
 H        4.7910010000    -2.0932470000    -1.3436570000 
*
