! RI PBE def2-SVP def2-SVP/J NBO PAL2
% maxcore 2000
% output
    # printlevel mini
    print[ P_Basis ] 0
    print[ P_SCFInfo ] 1
    print[ P_SCFIterInfo ] 1
    print[ P_OrbEn ] 0
    print[ P_Cartesian ] 0
end
*xyz 0 1
 O        0.9454360000    -0.1424470000     0.4324060000 
 C        2.3501720000    -0.2258460000     0.5594380000 
 C        2.9441650000     0.9718490000    -0.1466090000 
 N        4.3873950000     0.9464990000    -0.0487480000 
 C        5.0553180000     2.2102490000    -0.2662880000 
 C        4.9564440000     1.6349160000     1.0927480000 
 H        0.5543470000    -0.9170170000     0.8409590000 
 H        2.7452870000    -1.1424990000     0.1038320000 
 H        2.6557140000    -0.2175830000     1.6152830000 
 H        2.5101640000     1.8920170000     0.2797710000 
 H        2.6640230000     0.9371450000    -1.2035150000 
 H        4.4354430000     3.0775980000    -0.4815500000 
 H        5.9893100000     2.1646590000    -0.8157280000 
 H        4.2690800000     2.1176070000     1.7842450000 
 H        5.8170010000     1.1625410000     1.5535560000 
*
