! RI PBE def2-SVP def2-SVP/J NBO PAL2
% maxcore 2000
% output
    # printlevel mini
    print[ P_Basis ] 0
    print[ P_SCFInfo ] 1
    print[ P_SCFIterInfo ] 1
    print[ P_OrbEn ] 0
    print[ P_Cartesian ] 0
end
*xyz 0 1
 O        2.7514750000    -1.0817540000     0.3216190000 
 C        2.6663820000     0.1093860000     0.1127670000 
 N        2.9962040000     0.7056610000    -1.0404960000 
 C        2.9763540000     2.0858810000    -1.5039590000 
 C        3.5246950000     1.5830380000    -2.8596070000 
 C        3.5109610000     0.1499570000    -2.2806140000 
 H        2.3008950000     0.8320970000     0.8697540000 
 H        3.6433670000     2.7526710000    -0.9502600000 
 H        1.9777570000     2.5302790000    -1.5413930000 
 H        4.5132060000     1.9603830000    -3.1141640000 
 H        2.8543170000     1.7383850000    -3.7027010000 
 H        4.4862680000    -0.3306910000    -2.1709870000 
 H        2.8257300000    -0.5530930000    -2.7606480000 
*
