! RI PBE def2-SVP def2-SVP/J NBO PAL2
% maxcore 2000
% output
    # printlevel mini
    print[ P_Basis ] 0
    print[ P_SCFInfo ] 1
    print[ P_SCFIterInfo ] 1
    print[ P_OrbEn ] 0
    print[ P_Cartesian ] 0
end
*xyz 0 1
 O        1.0259290000    -0.9372530000     0.5779520000 
 C        2.2320290000    -0.9786490000     0.5260480000 
 N        2.9704550000    -0.6396210000    -0.5586180000 
 C        4.3766390000    -0.8343810000    -0.6632100000 
 C        5.2251770000     0.3184220000    -1.1014270000 
 C        5.2780210000    -0.1489900000     0.3180270000 
 H        2.8617830000    -1.2889060000     1.3807520000 
 H        2.4465710000    -0.4103500000    -1.3905710000 
 H        4.6911550000    -1.8183460000    -1.0020270000 
 H        4.7163310000     1.2538620000    -1.2973090000 
 H        6.0643570000     0.1075070000    -1.7513100000 
 H        4.8098500000     0.4777210000     1.0659880000 
 H        6.1532140000    -0.6875260000     0.6573060000 
*
