! RI PBE def2-SVP def2-SVP/J NBO PAL2
% maxcore 2000
% output
    # printlevel mini
    print[ P_Basis ] 0
    print[ P_SCFInfo ] 1
    print[ P_SCFIterInfo ] 1
    print[ P_OrbEn ] 0
    print[ P_Cartesian ] 0
end
*xyz 0 1
 O        0.9090290000    -0.6699820000     1.2234280000 
 N        2.2306460000    -1.0402040000     1.4135480000 
 C        2.9739730000    -0.6186780000     0.4787920000 
 C        4.4082710000    -0.9426090000     0.4354480000 
 C        5.0332740000    -1.8215920000     1.4719070000 
 C        4.8374210000    -2.3516420000     0.0909940000 
 H        0.4710680000    -1.0256350000     2.0012000000 
 H        2.5469990000    -0.0229660000    -0.3311680000 
 H        5.0249500000    -0.1535940000     0.0189430000 
 H        4.3808050000    -2.1898620000     2.2521580000 
 H        6.0392740000    -1.5772820000     1.7885640000 
 H        4.0455770000    -3.0741280000    -0.0623420000 
 H        5.7020240000    -2.4728360000    -0.5497690000 
*
