! RI PBE def2-SVP def2-SVP/J NBO PAL2
% maxcore 2000
% output
    # printlevel mini
    print[ P_Basis ] 0
    print[ P_SCFInfo ] 1
    print[ P_SCFIterInfo ] 1
    print[ P_OrbEn ] 0
    print[ P_Cartesian ] 0
end
*xyz 0 1
 O        0.7959790000    -0.7916640000     0.9942090000 
 N        2.1583640000    -0.6314070000     1.1755170000 
 C        2.8243270000    -1.1443380000     0.2297460000 
 C        4.3160920000    -1.0820360000     0.2497340000 
 C        4.9299140000    -2.4479350000     0.3115860000 
 C        5.7189540000    -2.9654640000    -0.6186010000 
 H        0.4225270000    -0.3601630000     1.7675370000 
 H        2.3204660000    -1.6482620000    -0.5977550000 
 H        4.6164820000    -0.4889920000     1.1186960000 
 H        4.6700490000    -0.5657530000    -0.6492540000 
 H        4.6838420000    -3.0357850000     1.1933900000 
 H        5.9826250000    -2.4087270000    -1.5128700000 
 H        6.1349680000    -3.9611840000    -0.5187260000 
*
