! RI PBE def2-SVP def2-SVP/J NBO PAL2
% maxcore 2000
% output
    # printlevel mini
    print[ P_Basis ] 0
    print[ P_SCFInfo ] 1
    print[ P_SCFIterInfo ] 1
    print[ P_OrbEn ] 0
    print[ P_Cartesian ] 0
end
*xyz 0 1
 C        0.8762400000    -0.0264930000     0.0262150000 
 C        2.3649500000    -0.0830390000     0.0312910000 
 C        3.2512600000     0.9553090000     0.0331040000 
 C        4.6074920000     0.5405440000     0.0381310000 
 C        4.7366410000    -0.8142840000     0.0400810000 
 S        3.2093090000    -1.5796130000     0.0358210000 
 H        0.5476220000     1.0138980000     0.0239970000 
 H        0.4472450000    -0.5118550000     0.9068570000 
 H        0.4531860000    -0.5137380000    -0.8562590000 
 H        2.9356010000     1.9913830000     0.0308790000 
 H        5.4497300000     1.2199600000     0.0402010000 
 H        5.6416140000    -1.4022830000     0.0437810000 
*
