! RI PBE def2-SVP def2-SVP/J NBO PAL2
% maxcore 2000
% output
    # printlevel mini
    print[ P_Basis ] 0
    print[ P_SCFInfo ] 1
    print[ P_SCFIterInfo ] 1
    print[ P_OrbEn ] 0
    print[ P_Cartesian ] 0
end
*xyz 0 1
 C        1.0095960000     0.0694160000     0.0597030000 
 C        2.5012980000     0.0934400000     0.0602010000 
 N        3.1383280000     1.2448380000     0.0603080000 
 S        4.7551300000     0.9866710000     0.0608800000 
 C        4.6491540000    -0.7039050000     0.0609970000 
 C        3.3324500000    -1.0591540000     0.0605820000 
 H        0.6208710000     1.0865460000     0.0594390000 
 H        0.6274330000    -0.4530490000     0.9406200000 
 H        0.6280230000    -0.4532840000    -0.8213300000 
 H        5.5181530000    -1.3456910000     0.0613490000 
 H        2.9697550000    -2.0782490000     0.0605510000 
*
