! RI PBE def2-SVP def2-SVP/J NBO PAL2
% maxcore 2000
% output
    # printlevel mini
    print[ P_Basis ] 0
    print[ P_SCFInfo ] 1
    print[ P_SCFIterInfo ] 1
    print[ P_OrbEn ] 0
    print[ P_Cartesian ] 0
end
*xyz 0 1
 C        0.9669880000     0.0469040000     0.0719310000 
 C        2.4534250000     0.1320520000     0.0756420000 
 C        3.1925250000     1.2788920000     0.0744360000 
 S        4.8579630000     0.9075280000     0.0798540000 
 C        4.4611590000    -0.7591770000     0.0834150000 
 N        3.1930690000    -1.0204890000     0.0807840000 
 H        0.5128610000     1.0378460000     0.0681110000 
 H        0.6135570000    -0.4960110000     0.9518380000 
 H        0.6182090000    -0.5006510000    -0.8069570000 
 H        2.8428140000     2.2995470000     0.0706970000 
 H        5.2339290000    -1.5168510000     0.0875480000 
*
