! RI PBE def2-SVP def2-SVP/J NBO PAL2
% maxcore 2000
% output
    # printlevel mini
    print[ P_Basis ] 0
    print[ P_SCFInfo ] 1
    print[ P_SCFIterInfo ] 1
    print[ P_OrbEn ] 0
    print[ P_Cartesian ] 0
end
*xyz 0 1
 C        0.9750980000     0.0247710000     0.0576210000 
 C        2.4596120000    -0.0744130000     0.0536360000 
 N        3.2592130000     0.9478680000     0.0496440000 
 C        4.5660190000     0.5556930000     0.0466230000 
 C        4.7827390000    -0.7850140000     0.0482690000 
 S        3.2805110000    -1.5977740000     0.0539550000 
 H        0.7000050000     1.0787880000     0.0569600000 
 H        0.5443980000    -0.4511770000     0.9417720000 
 H        0.5395200000    -0.4535370000    -0.8228610000 
 H        5.3448460000     1.3069310000     0.0431470000 
 H        5.7197480000    -1.3193460000     0.0465260000 
*
