! RI PBE def2-SVP def2-SVP/J NBO PAL2
% maxcore 2000
% output
    # printlevel mini
    print[ P_Basis ] 0
    print[ P_SCFInfo ] 1
    print[ P_SCFIterInfo ] 1
    print[ P_OrbEn ] 0
    print[ P_Cartesian ] 0
end
*xyz 0 1
 C        1.0616010000    -0.0285890000     0.0713580000 
 C        2.5786630000    -0.0545180000     0.0733050000 
 S        3.1682170000    -1.2981100000    -1.0624590000 
 C        4.9314380000    -1.1874910000    -0.9296560000 
 O        2.7678230000    -2.5868310000    -0.5639970000 
 O        2.7998380000    -0.8996280000    -2.3947870000 
 H        0.7059510000     0.7332230000     0.7669430000 
 H        0.6575280000    -0.9935510000     0.3792720000 
 H        0.6796710000     0.2058250000    -0.9228470000 
 H        2.9815100000    -0.3105890000     1.0559240000 
 H        3.0038200000     0.8967750000    -0.2547960000 
 H        5.2383120000    -1.4181130000     0.0896190000 
 H        5.2613960000    -0.1954520000    -1.2350840000 
 H        5.3229300000    -1.9387620000    -1.6162970000 
*
