! RI PBE def2-SVP def2-SVP/J NBO PAL2
% maxcore 2000
% output
    # printlevel mini
    print[ P_Basis ] 0
    print[ P_SCFInfo ] 1
    print[ P_SCFIterInfo ] 1
    print[ P_OrbEn ] 0
    print[ P_Cartesian ] 0
end
*xyz 0 1
 C        1.0691700000    -0.3094180000     0.0812110000 
 S        2.7861970000     0.0759480000    -0.1132700000 
 O        3.5362130000    -1.1207670000     0.1522120000 
 O        2.9444530000     0.7761670000    -1.3580550000 
 C        3.1070150000     1.1999300000     1.2068050000 
 C        3.4308730000     2.4552710000     0.9515510000 
 H        0.8405260000    -1.0427600000    -0.6935650000 
 H        0.4770380000     0.5931340000    -0.0614290000 
 H        0.9040680000    -0.7451380000     1.0660040000 
 H        3.0816370000     0.7603180000     2.1979280000 
 H        3.4591440000     2.8162920000    -0.0707290000 
 H        3.6882760000     3.1425230000     1.7495340000 
*
