! RI PBE def2-SVP def2-SVP/J NBO PAL2
% maxcore 2000
% output
    # printlevel mini
    print[ P_Basis ] 0
    print[ P_SCFInfo ] 1
    print[ P_SCFIterInfo ] 1
    print[ P_OrbEn ] 0
    print[ P_Cartesian ] 0
end
*xyz 0 1
 C        0.9990380000    -0.0255750000     0.0502240000 
 S        2.7557960000    -0.1436610000    -0.0419550000 
 O        3.1695370000    -1.3630950000     0.5797110000 
 O        3.1705480000     0.1768420000    -1.3723290000 
 C        3.2471510000     1.1521650000     0.9806230000 
 C        3.6145300000     2.0491420000     1.6885580000 
 H        0.6189870000    -0.8279480000    -0.5846860000 
 H        0.6852910000     0.9443220000    -0.3323360000 
 H        0.6844620000    -0.1742420000     1.0819200000 
 H        3.9487700000     2.8438600000     2.3156700000 
*
