! RI PBE def2-SVP def2-SVP/J NBO PAL2
% maxcore 2000
% output
    # printlevel mini
    print[ P_Basis ] 0
    print[ P_SCFInfo ] 1
    print[ P_SCFIterInfo ] 1
    print[ P_OrbEn ] 0
    print[ P_Cartesian ] 0
end
*xyz 0 1
 N        0.8464600000     0.1646270000     0.0049500000 
 C        2.2118540000     0.1153550000     0.0105410000 
 C        3.1038540000     1.1548980000     0.0129120000 
 C        4.4523990000     0.7124110000     0.0187360000 
 C        4.5815600000    -0.6385590000     0.0207590000 
 S        3.0375840000    -1.4005480000     0.0155110000 
 H        0.3780030000     1.0490060000     0.0031790000 
 H        0.2915930000    -0.6672100000     0.0046920000 
 H        2.8027820000     2.1944580000     0.0105390000 
 H        5.3002690000     1.3853990000     0.0213280000 
 H        5.4771530000    -1.2386270000     0.0249510000 
*
