! RI PBE def2-SVP def2-SVP/J NBO PAL2
% maxcore 2000
% output
    # printlevel mini
    print[ P_Basis ] 0
    print[ P_SCFInfo ] 1
    print[ P_SCFIterInfo ] 1
    print[ P_OrbEn ] 0
    print[ P_Cartesian ] 0
end
*xyz 0 1
 N        1.0258540000    -0.0661880000     0.0435130000 
 C        2.3963790000    -0.0137360000     0.0483160000 
 C        3.1561160000     1.1288520000     0.0501160000 
 S        4.8307440000     0.7759130000     0.0561200000 
 C        4.5425180000    -0.8991580000     0.0563630000 
 C        3.2113010000    -1.1840870000     0.0519700000 
 H        0.4763950000     0.7691500000     0.0418160000 
 H        0.5497530000    -0.9451310000     0.0433970000 
 H        2.8134550000     2.1521230000     0.0481800000 
 H        5.3658530000    -1.5968050000     0.0597080000 
 H        2.8139320000    -2.1916320000     0.0513120000 
*
