! RI PBE def2-SVP def2-SVP/J NBO PAL2
% maxcore 2000
% output
    # printlevel mini
    print[ P_Basis ] 0
    print[ P_SCFInfo ] 1
    print[ P_SCFIterInfo ] 1
    print[ P_OrbEn ] 0
    print[ P_Cartesian ] 0
end
*xyz 0 1
 O        0.8511160000    -0.0209180000    -0.0421100000 
 C        2.1995860000    -0.0337710000    -0.0362410000 
 C        3.0885830000     0.9996730000    -0.0331940000 
 C        4.4325790000     0.5384890000    -0.0269980000 
 C        4.5329760000    -0.8158500000    -0.0255000000 
 S        2.9862290000    -1.5620100000    -0.0316280000 
 H        0.5510090000     0.8928700000    -0.0439890000 
 H        2.7967210000     2.0424970000    -0.0352850000 
 H        5.2911870000     1.1969960000    -0.0237900000 
 H        5.4226140000    -1.4255760000    -0.0211660000 
*
