! RI PBE def2-SVP def2-SVP/J NBO PAL2
% maxcore 2000
% output
    # printlevel mini
    print[ P_Basis ] 0
    print[ P_SCFInfo ] 1
    print[ P_SCFIterInfo ] 1
    print[ P_OrbEn ] 0
    print[ P_Cartesian ] 0
end
*xyz 0 1
 O        0.9755080000     0.0335800000    -0.0445560000 
 C        2.3263890000     0.1394210000    -0.0389440000 
 C        3.0630440000     1.2907360000    -0.0361000000 
 S        4.7376700000     0.9441660000    -0.0290600000 
 C        4.4570790000    -0.7359050000    -0.0298920000 
 C        3.1284340000    -1.0306500000    -0.0353770000 
 H        0.5860520000     0.9117240000    -0.0463040000 
 H        2.7094470000     2.3108270000    -0.0377750000 
 H        5.2876630000    -1.4248560000    -0.0262920000 
 H        2.7182040000    -2.0311330000    -0.0368910000 
*
