! RI PBE def2-SVP def2-SVP/J NBO PAL2
% maxcore 2000
% output
    # printlevel mini
    print[ P_Basis ] 0
    print[ P_SCFInfo ] 1
    print[ P_SCFIterInfo ] 1
    print[ P_OrbEn ] 0
    print[ P_Cartesian ] 0
end
*xyz 0 1
 O        0.9611420000    -0.0806880000     0.1400500000 
 S        2.3733140000    -0.0631150000    -0.1048740000 
 O        2.8762780000    -0.0408430000    -1.4501480000 
 C        3.2903160000     1.0951860000     0.9246470000 
 C        4.2149880000    -0.0635190000     1.3566660000 
 C        3.3135140000    -1.2289040000     0.8946330000 
 H        2.6470030000     1.4659090000     1.7224120000 
 H        3.7393290000     1.9172540000     0.3712750000 
 H        4.4341060000    -0.0750530000     2.4230340000 
 H        5.1521330000    -0.0470410000     0.8025830000 
 H        2.6778470000    -1.6327820000     1.6823850000 
 H        3.7788410000    -2.0274930000     0.3207460000 
*
