! RI PBE def2-SVP def2-SVP/J NBO PAL2
% maxcore 2000
% output
    # printlevel mini
    print[ P_Basis ] 0
    print[ P_SCFInfo ] 1
    print[ P_SCFIterInfo ] 1
    print[ P_OrbEn ] 0
    print[ P_Cartesian ] 0
end
*xyz 0 1
 C        1.7518700000    -0.0001800000    -0.5249100000 
 C        0.8163160000     0.7546560000     0.3702490000 
 C        0.8161780000    -0.7548810000     0.3702180000 
 C       -0.6271260000    -1.0188640000    -0.0686970000 
 C       -0.8762310000     0.0000750000    -1.1964320000 
 C       -0.6269380000     1.0189230000    -0.0686560000 
 C       -1.3798830000     0.0000800000     0.8372320000 
 H        2.7906830000    -0.0002820000    -0.2136190000 
 H        1.6284530000    -0.0001470000    -1.6000910000 
 H        1.2169200000     1.3243290000     1.2000260000 
 H        1.2166760000    -1.3246610000     1.1999720000 
 H       -0.9416800000    -2.0583960000    -0.1588770000 
 H       -1.9234170000     0.0001770000    -1.5006650000 
 H       -0.2423850000     0.0000350000    -2.0826560000 
 H       -0.9413020000     2.0585160000    -0.1587930000 
 H       -2.4616640000     0.0001830000     0.6832400000 
 H       -1.1384810000     0.0000360000     1.9030390000 
*
