! RI PBE def2-SVP def2-SVP/J NBO PAL2
% maxcore 2000
% output
    # printlevel mini
    print[ P_Basis ] 0
    print[ P_SCFInfo ] 1
    print[ P_SCFIterInfo ] 1
    print[ P_OrbEn ] 0
    print[ P_Cartesian ] 0
end
*xyz 0 1
 C       -1.4731080000     0.4535930000     0.9660050000 
 C       -1.2870030000    -0.1110580000    -0.4152900000 
 C       -0.2821420000    -1.2762960000    -0.6260160000 
 C        0.8307440000    -0.7971130000     0.2898020000 
 C        2.1298280000    -0.0383560000     0.4327020000 
 C        0.9097430000     0.6553040000    -0.1110170000 
 C       -0.5044950000     1.1386630000     0.0575800000 
 H       -1.1462000000    -0.0885570000     1.8445590000 
 H       -2.4005430000     0.9913610000     1.1251050000 
 H       -2.1212630000    -0.0203150000    -1.1027880000 
 H       -0.7026330000    -2.2456840000    -0.3430400000 
 H        0.0094350000    -1.3221190000    -1.6788710000 
 H        0.4552650000    -0.8673330000     1.3073520000 
 H        2.9430250000    -0.0968930000    -0.2841550000 
 H        2.4598730000     0.0365270000     1.4642130000 
 H        1.0855540000     0.6921050000    -1.1898560000 
 H       -0.7770590000     2.1175700000    -0.3213850000 
*
