! RI PBE def2-SVP def2-SVP/J NBO PAL2
% maxcore 2000
% output
    # printlevel mini
    print[ P_Basis ] 0
    print[ P_SCFInfo ] 1
    print[ P_SCFIterInfo ] 1
    print[ P_OrbEn ] 0
    print[ P_Cartesian ] 0
end
*xyz 0 1
 C        1.3293540000     1.3202580000    -1.3771160000 
 C       -0.0774400000     1.2871910000    -2.0312100000 
 C       -0.7564710000     0.0993140000    -1.3370210000 
 C       -1.0565760000     0.4970740000     0.1140800000 
 C        0.3501510000     0.5305550000     0.7682970000 
 C        1.2817150000     0.1474660000    -0.3890560000 
 C        0.4210230000    -0.8619980000    -1.1535580000 
 H        1.5401440000     2.2672360000    -0.8744270000 
 H        2.1132750000     1.1682240000    -2.1233660000 
 H       -0.6340370000     2.2159980000    -1.8848350000 
 H       -0.0059450000     1.1188870000    -3.1087430000 
 H       -1.6206720000    -0.2925420000    -1.8757570000 
 H       -1.6965960000    -0.2460760000     0.5964060000 
 H       -1.5739970000     1.4575990000     0.1737760000 
 H        0.4223900000    -0.1952810000     1.5822130000 
 H        0.6000780000     1.5094940000     1.1843770000 
 H        2.2648850000    -0.2007620000    -0.0685170000 
 H        0.1673030000    -1.7468690000    -0.5631700000 
 H        0.8683270000    -1.1813770000    -2.0989920000 
*
