! RI PBE def2-SVP def2-SVP/J NBO PAL2
% maxcore 2000
% output
    # printlevel mini
    print[ P_Basis ] 0
    print[ P_SCFInfo ] 1
    print[ P_SCFIterInfo ] 1
    print[ P_OrbEn ] 0
    print[ P_Cartesian ] 0
end
*xyz 0 1
 C        1.7906940000     0.6604100000    -1.2446750000 
 C        0.5035170000     1.4262650000    -1.1582710000 
 C        0.7565270000     0.2775240000    -0.2320630000 
 C        1.0162160000     0.5011780000     1.2566960000 
 C        0.0817410000    -0.4825710000     1.9599400000 
 C        0.0490540000    -1.6727640000     1.0064270000 
 C       -0.0478100000    -1.0140470000    -0.3691670000 
 H        2.6935720000     1.1444190000    -0.8885750000 
 H        1.9382720000     0.0080850000    -2.0980470000 
 H       -0.2234550000     1.2872110000    -1.9510100000 
 H        0.5352780000     2.4301720000    -0.7499650000 
 H        2.0563410000     0.2536690000     1.4958520000 
 H        0.8522170000     1.5378110000     1.5607670000 
 H        0.4129180000    -0.7413090000     2.9680300000 
 H       -0.9222820000    -0.0527350000     2.0441420000 
 H       -0.7688500000    -2.3684240000     1.2063280000 
 H        0.9858030000    -2.2345170000     1.0891710000 
 H       -1.0949770000    -0.7803290000    -0.5908270000 
 H        0.3186430000    -1.6536580000    -1.1757470000 
*
