! RI PBE def2-SVP def2-SVP/J NBO PAL2
% maxcore 2000
% output
    # printlevel mini
    print[ P_Basis ] 0
    print[ P_SCFInfo ] 1
    print[ P_SCFIterInfo ] 1
    print[ P_OrbEn ] 0
    print[ P_Cartesian ] 0
end
*xyz 0 1
 C       -1.3590630000     1.1613480000    -2.0196510000 
 C       -0.3950500000     0.0210540000    -2.1123460000 
 C       -0.5925410000    -1.2377560000    -1.3028860000 
 C       -0.7992140000    -0.9722680000     0.1840240000 
 C        0.2828520000    -0.0444110000     0.7141570000 
 C        0.1935170000     1.3390310000     0.0789350000 
 C        0.0150390000     1.3002490000    -1.4293140000 
 H       -2.1861660000     1.0733620000    -1.3230050000 
 H       -1.5951900000     1.7108520000    -2.9229690000 
 H        0.0328390000    -0.1455400000    -3.0959730000 
 H        0.3010150000    -1.8633080000    -1.4160160000 
 H       -1.4290980000    -1.8165830000    -1.7094860000 
 H       -0.7915880000    -1.9222830000     0.7257320000 
 H       -1.7854720000    -0.5265900000     0.3615010000 
 H        1.2622690000    -0.4868280000     0.4945050000 
 H        0.2170910000     0.0449990000     1.8024880000 
 H        1.0957160000     1.9080340000     0.3191790000 
 H       -0.6389620000     1.8887410000     0.5330470000 
 H        0.6964130000     1.9330070000    -1.9875220000 
*
