! RI PBE def2-SVP def2-SVP/J NBO PAL2
% maxcore 2000
% output
    # printlevel mini
    print[ P_Basis ] 0
    print[ P_SCFInfo ] 1
    print[ P_SCFIterInfo ] 1
    print[ P_OrbEn ] 0
    print[ P_Cartesian ] 0
end
*xyz 0 1
 C       -1.5311890000     0.7527330000     0.1032480000 
 C       -1.5312450000    -0.7555250000    -0.1081840000 
 C       -0.3105050000    -1.5107480000     0.4104360000 
 C        0.9595170000    -1.2408590000    -0.3943110000 
 C        1.7625400000    -0.0028400000     0.0069790000 
 C        0.9583160000     1.2358850000     0.4036540000 
 C       -0.3068340000     1.5068840000    -0.4083620000 
 H       -1.6330250000     0.9640390000     1.1756010000 
 H       -2.4297910000     1.1638770000    -0.3697360000 
 H       -1.6271160000    -0.9667440000    -1.1811040000 
 H       -2.4329040000    -1.1658790000     0.3596390000 
 H       -0.5335570000    -2.5814340000     0.3616200000 
 H       -0.1468180000    -1.2874680000     1.4721180000 
 H        0.6777610000    -1.1678390000    -1.4510830000 
 H        1.6253700000    -2.1073380000    -0.3306930000 
 H        2.4277260000     0.2520800000    -0.8252910000 
 H        2.4227110000    -0.2583440000     0.8430540000 
 H        1.6252820000     2.1017790000     0.3438530000 
 H        0.6704400000     1.1631210000     1.4587930000 
 H       -0.1372570000     1.2834570000    -1.4690890000 
 H       -0.5292240000     2.5777650000    -0.3608240000 
*
