! RI PBE def2-SVP def2-SVP/J NBO PAL2
% maxcore 2000
% output
    # printlevel mini
    print[ P_Basis ] 0
    print[ P_SCFInfo ] 1
    print[ P_SCFIterInfo ] 1
    print[ P_OrbEn ] 0
    print[ P_Cartesian ] 0
end
*xyz 0 1
 C        1.4558740000    -0.3036140000    -0.3501610000 
 C        2.8476950000     0.0159900000     0.1131970000 
 C        3.6733440000    -1.0506010000     0.7665300000 
 C        4.0748910000    -0.5215450000    -0.5795130000 
 C        5.1377100000     0.5629730000    -0.6080650000 
 C        4.3780280000     1.8625710000    -0.3066110000 
 C        3.1669310000     1.4475330000     0.5386770000 
 H        1.3894700000    -1.3314590000    -0.7158060000 
 H        1.1457460000     0.3609220000    -1.1627620000 
 H        0.7314180000    -0.1951710000     0.4631790000 
 H        3.2552840000    -2.0504720000     0.8118700000 
 H        4.2874060000    -0.7821780000     1.6209220000 
 H        3.9722280000    -1.1821480000    -1.4334090000 
 H        5.6437040000     0.6059720000    -1.5750510000 
 H        5.9107150000     0.3734990000     0.1441720000 
 H        4.0218690000     2.2905790000    -1.2488010000 
 H        4.9989400000     2.6219080000     0.1755740000 
 H        2.3116830000     2.1062570000     0.3678680000 
 H        3.3940550000     1.4968940000     1.6086890000 
*
