! RI PBE def2-SVP def2-SVP/J NBO PAL2
% maxcore 2000
% output
    # printlevel mini
    print[ P_Basis ] 0
    print[ P_SCFInfo ] 1
    print[ P_SCFIterInfo ] 1
    print[ P_OrbEn ] 0
    print[ P_Cartesian ] 0
end
*xyz 0 1
 C        1.0201290000    -0.0702420000     0.0120710000 
 C        2.5134780000     0.0697730000     0.0834950000 
 C        3.4619120000    -0.5641210000    -0.9649150000 
 C        4.5144490000    -0.3695630000     0.1450830000 
 C        3.3722350000    -0.6783280000     1.1339190000 
 C        4.6034650000     1.1547520000     0.2318290000 
 C        3.0902780000     1.4877770000     0.1853000000 
 H        0.7197580000    -1.1190090000    -0.0578340000 
 H        0.6182360000     0.4523240000    -0.8614830000 
 H        0.5429870000     0.3564830000     0.8997260000 
 H        3.6063110000    -0.0395160000    -1.9141330000 
 H        3.2301810000    -1.6163230000    -1.1431560000 
 H        5.4495630000    -0.9288500000     0.1546040000 
 H        3.4329550000    -0.2602930000     2.1431940000 
 H        3.1310550000    -1.7425610000     1.1767900000 
 H        5.1563660000     1.5853500000    -0.6064160000 
 H        5.0810760000     1.4894610000     1.1557490000 
 H        2.8161910000     2.0992510000    -0.6786280000 
 H        2.7408860000     2.0033450000     1.0839170000 
*
