! RI PBE def2-SVP def2-SVP/J NBO PAL2
% maxcore 2000
% output
    # printlevel mini
    print[ P_Basis ] 0
    print[ P_SCFInfo ] 1
    print[ P_SCFIterInfo ] 1
    print[ P_OrbEn ] 0
    print[ P_Cartesian ] 0
end
*xyz 0 1
 C        0.7871890000     0.1101210000    -0.2003270000 
 C        2.2741610000     0.1587870000     0.0184040000 
 C        3.2718910000    -0.8119340000    -0.5485390000 
 C        2.9000050000    -1.6714560000    -1.7367840000 
 C        2.4363890000    -0.7118010000    -2.8492070000 
 C        2.9279270000     0.6935100000    -2.4531810000 
 C        3.2889210000     0.6299680000    -0.9852970000 
 H        0.3197910000    -0.5969010000     0.4910820000 
 H        0.5112890000    -0.1907830000    -1.2101660000 
 H        0.3394650000     1.0911670000    -0.0173830000 
 H        2.5279650000     0.4625100000     1.0311030000 
 H        4.0309740000    -1.1941290000     0.1249050000 
 H        2.1349290000    -2.4177160000    -1.5008570000 
 H        3.7878270000    -2.2258710000    -2.0548280000 
 H        1.3495820000    -0.7279400000    -2.9447250000 
 H        2.8273490000    -1.0116980000    -3.8239890000 
 H        3.8254610000     0.9589060000    -3.0195320000 
 H        2.1807630000     1.4616250000    -2.6760080000 
 H        4.0605110000     1.3050550000    -0.6321520000 
*
