! RI PBE def2-SVP def2-SVP/J NBO PAL2
% maxcore 2000
% output
    # printlevel mini
    print[ P_Basis ] 0
    print[ P_SCFInfo ] 1
    print[ P_SCFIterInfo ] 1
    print[ P_OrbEn ] 0
    print[ P_Cartesian ] 0
end
*xyz 0 1
 C        0.9642350000     0.0577550000    -0.1369970000 
 C        2.4673370000     0.0341290000     0.0612250000 
 C        2.9839480000    -1.0557450000     1.0448300000 
 C        3.7628710000    -0.1713890000     2.0203980000 
 C        4.4950040000     0.7943010000     1.0623930000 
 C        3.0570030000     1.2675170000     0.7617550000 
 C        2.7729860000     0.9887880000     2.2545150000 
 H        0.6124680000    -0.8795880000    -0.5767960000 
 H        0.6651830000     0.8699920000    -0.8056050000 
 H        0.4341850000     0.1931980000     0.8097020000 
 H        2.9446000000    -0.0842020000    -0.9175750000 
 H        3.6178230000    -1.8000780000     0.5569320000 
 H        2.1618400000    -1.5838990000     1.5361670000 
 H        4.2766180000    -0.6649700000     2.8455540000 
 H        5.0759060000     0.3650210000     0.2410000000 
 H        5.0827990000     1.5447530000     1.5937800000 
 H        2.8520630000     2.2374480000     0.3067250000 
 H        1.7531360000     0.7457500000     2.5623620000 
 H        3.1856060000     1.7638270000     2.9025240000 
*
