! RI PBE def2-SVP def2-SVP/J NBO PAL2
% maxcore 2000
% output
    # printlevel mini
    print[ P_Basis ] 0
    print[ P_SCFInfo ] 1
    print[ P_SCFIterInfo ] 1
    print[ P_OrbEn ] 0
    print[ P_Cartesian ] 0
end
*xyz 0 1
 C        0.5301600000    -0.2041400000    -0.2011350000 
 C        2.0199560000     0.0781020000    -0.2050800000 
 C        2.9286560000    -1.1844360000    -0.1555690000 
 C        3.7799390000    -0.9359680000    -1.4022130000 
 C        2.7125320000    -0.5205990000    -2.4360450000 
 C        2.5674640000     0.6990910000    -1.4990290000 
 C        4.0903620000     0.5725490000    -1.2823810000 
 H        0.2293200000    -0.7070420000     0.7220970000 
 H        0.2393190000    -0.8498770000    -1.0341850000 
 H       -0.0487930000     0.7205530000    -0.2782970000 
 H        2.2496670000     0.7415240000     0.6357140000 
 H        2.3477030000    -2.1079060000    -0.2324980000 
 H        3.5278740000    -1.2391930000     0.7564690000 
 H        4.5538200000    -1.6672970000    -1.6361080000 
 H        1.8524950000    -1.1777920000    -2.5855920000 
 H        3.1487620000    -0.2490160000    -3.3987500000 
 H        2.1074190000     1.6305830000    -1.8314410000 
 H        4.5067030000     0.9408020000    -0.3403270000 
 H        4.6686620000     0.9489330000    -2.1279310000 
*
