! RI PBE def2-SVP def2-SVP/J NBO PAL2
% maxcore 2000
% output
    # printlevel mini
    print[ P_Basis ] 0
    print[ P_SCFInfo ] 1
    print[ P_SCFIterInfo ] 1
    print[ P_OrbEn ] 0
    print[ P_Cartesian ] 0
end
*xyz 0 1
 C        0.8563440000     0.1168370000    -0.2573450000 
 C        2.3534510000     0.0423780000    -0.0772730000 
 C        2.7344540000    -0.0520020000     1.3805400000 
 C        3.1579350000    -0.7405020000    -1.0804340000 
 C        3.2677000000     0.7603190000    -1.0516420000 
 C        2.6767840000     1.5456460000    -2.1975930000 
 C        4.5549270000     1.3768700000    -0.5596630000 
 H        0.3775370000    -0.7326280000     0.2396600000 
 H        0.5518090000     0.0942370000    -1.3033210000 
 H        0.4498970000     1.0295610000     0.1907150000 
 H        2.2207350000    -0.8984300000     1.8469270000 
 H        2.4383760000     0.8507060000     1.9250350000 
 H        3.8035400000    -0.1978990000     1.5324770000 
 H        2.6297000000    -1.1956270000    -1.9116760000 
 H        4.0005710000    -1.3187880000    -0.7161770000 
 H        1.7968270000     1.0702540000    -2.6299900000 
 H        3.4157690000     1.6523780000    -2.9978940000 
 H        2.3912290000     2.5536540000    -1.8793620000 
 H        5.0482030000     0.7780270000     0.2054230000 
 H        4.3808640000     2.3748180000    -0.1440950000 
 H        5.2583180000     1.4868890000    -1.3909920000 
*
