! RI PBE def2-SVP def2-SVP/J NBO PAL2
% maxcore 2000
% output
    # printlevel mini
    print[ P_Basis ] 0
    print[ P_SCFInfo ] 1
    print[ P_SCFIterInfo ] 1
    print[ P_OrbEn ] 0
    print[ P_Cartesian ] 0
end
*xyz 0 1
 C        0.8277480000     0.2802990000    -0.2199770000 
 C        2.3209340000     0.1376770000    -0.1179230000 
 C        3.1242320000    -0.7529130000    -1.0348290000 
 C        2.5002670000    -1.5739850000    -2.1288150000 
 C        3.2860380000     0.7455790000    -1.1056690000 
 C        2.7741950000     1.5120210000    -2.2981550000 
 C        4.5625780000     1.3185930000    -0.5439450000 
 H        0.3232400000    -0.5144300000     0.3370930000 
 H        0.4657750000     0.2344390000    -1.2473920000 
 H        0.4976460000     1.2352590000     0.1988010000 
 H        2.6756100000     0.1570260000     0.9098450000 
 H        3.9544640000    -1.2607730000    -0.5497700000 
 H        2.1409560000    -2.5307380000    -1.7389760000 
 H        3.2279050000    -1.7925080000    -2.9156290000 
 H        1.6516120000    -1.0782700000    -2.6007910000 
 H        1.8513900000     1.1049640000    -2.7105540000 
 H        3.5188390000     1.5145600000    -3.1005140000 
 H        2.5808180000     2.5552990000    -2.0289540000 
 H        4.9090640000     0.7433870000     0.3181290000 
 H        4.4209170000     2.3548100000    -0.2193680000 
 H        5.3613430000     1.3122240000    -1.2930080000 
*
