! RI PBE def2-SVP def2-SVP/J NBO PAL2
% maxcore 2000
% output
    # printlevel mini
    print[ P_Basis ] 0
    print[ P_SCFInfo ] 1
    print[ P_SCFIterInfo ] 1
    print[ P_OrbEn ] 0
    print[ P_Cartesian ] 0
end
*xyz 0 1
 C        1.3133380000     0.3678230000     0.6840080000 
 C        2.5182030000    -0.1670920000    -0.0693040000 
 C        2.3560690000    -1.6172590000    -0.5492350000 
 C        3.3090110000    -1.7660380000    -1.7398910000 
 C        3.3652750000    -0.3854170000    -2.3565840000 
 C        2.0619830000     0.3264650000    -2.5613850000 
 C        2.8756350000     0.5959980000    -1.3300570000 
 H        1.0934870000    -0.2416270000     1.5649440000 
 H        0.4257770000     0.3659070000     0.0446320000 
 H        1.4772130000     1.3941400000     1.0225580000 
 H        3.3931890000    -0.1190710000     0.5923340000 
 H        1.3222670000    -1.7825540000    -0.8673790000 
 H        2.5559540000    -2.3404330000     0.2442020000 
 H        2.9837950000    -2.5407270000    -2.4406910000 
 H        4.3102520000    -2.0436540000    -1.3940120000 
 H        4.1904770000    -0.1400850000    -3.0148080000 
 H        1.1365500000    -0.2324310000    -2.4772580000 
 H        2.0379910000     1.1046020000    -3.3143180000 
 H        3.3351230000     1.5728630000    -1.2281660000 
*
