! RI PBE def2-SVP def2-SVP/J NBO PAL2
% maxcore 2000
% output
    # printlevel mini
    print[ P_Basis ] 0
    print[ P_SCFInfo ] 1
    print[ P_SCFIterInfo ] 1
    print[ P_OrbEn ] 0
    print[ P_Cartesian ] 0
end
*xyz 0 1
 C        0.9153400000    -0.1993610000     0.0142960000 
 C        2.4218680000    -0.1129000000     0.0714010000 
 C        3.0831050000     1.0084040000     0.8964690000 
 C        4.1723150000     0.0071760000     1.3407120000 
 C        5.4517770000     0.1078560000     0.5342380000 
 C        3.2035100000    -1.1343650000     0.9256310000 
 C        3.7228960000    -2.4006220000     0.2861980000 
 H        0.4867850000     0.6477170000    -0.5293270000 
 H        0.4870590000    -0.1986670000     1.0214220000 
 H        0.5851350000    -1.1135220000    -0.4879600000 
 H        2.8292740000    -0.1099100000    -0.9460520000 
 H        2.4448640000     1.3139880000     1.7302610000 
 H        3.4153670000     1.9040780000     0.3656920000 
 H        4.4170660000     0.0280210000     2.4063720000 
 H        5.9861650000     1.0289100000     0.7828430000 
 H        6.1244370000    -0.7302780000     0.7359350000 
 H        5.2559590000     0.1245410000    -0.5417770000 
 H        2.5884010000    -1.3917350000     1.7963050000 
 H        4.3492900000    -2.1845500000    -0.5831670000 
 H        2.8961030000    -3.0321980000    -0.0518830000 
 H        4.3192730000    -2.9910840000     0.9879800000 
*
