! RI PBE def2-SVP def2-SVP/J NBO PAL2
% maxcore 2000
% output
    # printlevel mini
    print[ P_Basis ] 0
    print[ P_SCFInfo ] 1
    print[ P_SCFIterInfo ] 1
    print[ P_OrbEn ] 0
    print[ P_Cartesian ] 0
end
*xyz 0 1
 C        1.0464160000    -0.2315950000     0.3047080000 
 C        2.5161610000    -0.0515930000    -0.0609540000 
 C        2.6274830000     0.3304310000    -1.5333250000 
 C        3.1774750000     1.0220730000     0.8450440000 
 C        4.4917750000     0.4171670000     1.3292420000 
 C        4.1429000000    -1.0572890000     1.4872170000 
 C        3.3254200000    -1.3440270000     0.2313790000 
 H        0.4999360000     0.7113420000     0.2068460000 
 H        0.9362130000    -0.5734690000     1.3379940000 
 H        0.5642480000    -0.9668680000    -0.3464010000 
 H        2.0380680000     1.2250750000    -1.7552730000 
 H        3.6659540000     0.5342580000    -1.8103350000 
 H        2.2646970000    -0.4772750000    -2.1762470000 
 H        2.5327990000     1.2204750000     1.7077000000 
 H        3.3088140000     1.9729600000     0.3221940000 
 H        4.8657480000     0.8812690000     2.2448540000 
 H        5.2697670000     0.5311630000     0.5658120000 
 H        3.5281960000    -1.1957200000     2.3839180000 
 H        5.0151440000    -1.7072760000     1.5887240000 
 H        2.6768560000    -2.2182580000     0.3308740000 
 H        4.0055390000    -1.5464640000    -0.6026610000 
*
