! RI PBE def2-SVP def2-SVP/J NBO PAL2
% maxcore 2000
% output
    # printlevel mini
    print[ P_Basis ] 0
    print[ P_SCFInfo ] 1
    print[ P_SCFIterInfo ] 1
    print[ P_OrbEn ] 0
    print[ P_Cartesian ] 0
end
*xyz 0 1
 C        0.9188300000     0.1931700000     0.2908130000 
 C        2.2602410000     0.2169140000    -0.4254920000 
 C        3.2004670000     1.2556730000     0.1226780000 
 C        4.3141790000     1.7988570000    -0.7218450000 
 C        3.1495690000     2.6730370000    -0.3638270000 
 C        3.3203540000     3.8235320000     0.5905140000 
 C        2.0211460000     4.2306950000     1.2681760000 
 H        0.2553540000    -0.5683030000    -0.1260370000 
 H        0.4143410000     1.1597180000     0.2109210000 
 H        1.0463850000    -0.0248900000     1.3548420000 
 H        2.1060770000     0.4079960000    -1.4937250000 
 H        2.7304720000    -0.7712440000    -0.3597530000 
 H        3.4308680000     1.1408200000     1.1800470000 
 H        4.3939700000     1.4398440000    -1.7417540000 
 H        5.2657990000     2.0082540000    -0.2464000000 
 H        2.4404830000     2.8574880000    -1.1684850000 
 H        3.7411230000     4.6822970000     0.0544390000 
 H        4.0623060000     3.5470940000     1.3484740000 
 H        1.2742270000     4.5386980000     0.5311440000 
 H        2.1724980000     5.0665390000     1.9553980000 
 H        1.5983110000     3.3988220000     1.8376630000 
*
