! RI PBE def2-SVP def2-SVP/J NBO PAL2
% maxcore 2000
% output
    # printlevel mini
    print[ P_Basis ] 0
    print[ P_SCFInfo ] 1
    print[ P_SCFIterInfo ] 1
    print[ P_OrbEn ] 0
    print[ P_Cartesian ] 0
end
*xyz 0 1
 C        1.2486590000     0.0128910000    -0.4301800000 
 C        2.6644000000     0.0861900000     0.1202860000 
 C        3.0213920000    -0.9588750000     1.1634910000 
 C        2.1685430000    -1.1509250000     2.4341490000 
 C        2.5066950000    -2.6511900000     2.3721260000 
 C        2.8512810000    -2.4698520000     0.8803680000 
 C        3.9997550000    -3.2441340000     0.2795290000 
 H        1.0800070000     0.8021640000    -1.1664720000 
 H        0.5000050000     0.1362220000     0.3562090000 
 H        1.0538720000    -0.9412650000    -0.9260940000 
 H        3.3768390000     0.0058030000    -0.7096740000 
 H        2.8288810000     1.0792510000     0.5553540000 
 H        4.0616250000    -0.7963030000     1.4729910000 
 H        1.1074730000    -0.9783710000     2.2395340000 
 H        2.4532240000    -0.5931650000     3.3281880000 
 H        1.7269380000    -3.3678720000     2.6364080000 
 H        3.4047080000    -2.8813400000     2.9527870000 
 H        1.9433670000    -2.6264040000     0.2875390000 
 H        4.9122860000    -3.1036960000     0.8669540000 
 H        4.2094650000    -2.9210940000    -0.7445220000 
 H        3.7858770000    -4.3165370000     0.2488270000 
*
