! RI PBE def2-SVP def2-SVP/J NBO PAL2
% maxcore 2000
% output
    # printlevel mini
    print[ P_Basis ] 0
    print[ P_SCFInfo ] 1
    print[ P_SCFIterInfo ] 1
    print[ P_OrbEn ] 0
    print[ P_Cartesian ] 0
end
*xyz 0 1
 C        1.1117650000     0.3388690000    -0.4084570000 
 C        2.5425440000    -0.0338790000    -0.0493610000 
 C        2.9096940000     0.2350190000     1.3940860000 
 C        2.1366210000    -0.5731070000     2.4050540000 
 C        4.3554380000     0.5306290000     1.6774110000 
 C        3.3427700000     1.6402620000     1.7219100000 
 C        3.0064510000     2.3378040000     3.0101040000 
 H        0.9178460000     0.1738260000    -1.4709210000 
 H        0.9157840000     1.3928770000    -0.1928690000 
 H        0.3857700000    -0.2548120000     0.1517920000 
 H        3.2321050000     0.5231040000    -0.6928270000 
 H        2.7124880000    -1.0953960000    -0.2690500000 
 H        1.0722820000    -0.3215770000     2.4004320000 
 H        2.5067360000    -0.4190140000     3.4193250000 
 H        2.2262450000    -1.6414840000     2.1839890000 
 H        5.0615240000     0.4992150000     0.8550990000 
 H        4.7601760000     0.1931090000     2.6259450000 
 H        3.3606060000     2.3056900000     0.8619350000 
 H        3.0453120000     1.6597530000     3.8645060000 
 H        2.0043990000     2.7755830000     2.9793670000 
 H        3.7152350000     3.1472280000     3.2066380000 
*
