! RI PBE def2-SVP def2-SVP/J NBO PAL2
% maxcore 2000
% output
    # printlevel mini
    print[ P_Basis ] 0
    print[ P_SCFInfo ] 1
    print[ P_SCFIterInfo ] 1
    print[ P_OrbEn ] 0
    print[ P_Cartesian ] 0
end
*xyz 0 1
 C        0.9961290000     0.5382330000    -0.4269980000 
 C        2.0490710000    -0.3763830000     0.1812560000 
 C        2.7116970000    -1.2510150000    -0.8494280000 
 C        3.3884120000    -2.5542700000    -0.5135230000 
 C        3.4684840000    -3.0935650000     0.8877950000 
 C        2.1005370000    -2.5519850000    -1.2841760000 
 C        2.0591540000    -2.9499590000    -2.7321500000 
 H        0.5283310000     1.1706140000     0.3315120000 
 H        0.2081940000    -0.0430540000    -0.9132270000 
 H        1.4344180000     1.1954160000    -1.1833230000 
 H        1.5850960000    -0.9961760000     0.9541250000 
 H        2.8080090000     0.2277070000     0.6924560000 
 H        3.1904520000    -0.6879360000    -1.6485520000 
 H        4.2708640000    -2.7652400000    -1.1129080000 
 H        4.2860300000    -2.6321310000     1.4495390000 
 H        2.5457930000    -2.9195430000     1.4444160000 
 H        3.6426950000    -4.1732190000     0.8768980000 
 H        1.2306550000    -2.8549740000    -0.7042290000 
 H        2.9598370000    -2.6132200000    -3.2527090000 
 H        1.1985660000    -2.5099060000    -3.2444980000 
 H        1.9975740000    -4.0360740000    -2.8484860000 
*
