! RI PBE def2-SVP def2-SVP/J NBO PAL2
% maxcore 2000
% output
    # printlevel mini
    print[ P_Basis ] 0
    print[ P_SCFInfo ] 1
    print[ P_SCFIterInfo ] 1
    print[ P_OrbEn ] 0
    print[ P_Cartesian ] 0
end
*xyz 0 1
 C        1.2399310000     0.1712420000     0.4080800000 
 C        2.7036780000    -0.1394620000     0.1382380000 
 C        2.9901800000    -0.8076140000    -1.2058800000 
 C        2.5396520000     0.0463330000    -2.3732900000 
 C        4.4566320000    -1.3107100000    -1.2619210000 
 C        3.9744560000    -2.7167740000    -0.8604940000 
 C        2.5409880000    -2.2939140000    -1.2291340000 
 H        1.1055330000     0.5639450000     1.4186270000 
 H        0.6174830000    -0.7235020000     0.3190120000 
 H        0.8477240000     0.9173860000    -0.2863760000 
 H        3.0868370000    -0.7847670000     0.9372980000 
 H        3.2903020000     0.7860550000     0.1922180000 
 H        1.4551670000     0.1848290000    -2.3799780000 
 H        2.8169270000    -0.4195130000    -3.3225700000 
 H        3.0033670000     1.0378120000    -2.3393570000 
 H        5.1722920000    -0.8125240000    -0.6028840000 
 H        4.8500700000    -1.2889800000    -2.2811570000 
 H        4.0897530000    -2.9066160000     0.2080430000 
 H        4.3993640000    -3.5624880000    -1.4027200000 
 H        1.7377560000    -2.5839170000    -0.5479940000 
 H        2.2670000000    -2.6133340000    -2.2376600000 
*
