! RI PBE def2-SVP def2-SVP/J NBO PAL2
% maxcore 2000
% output
    # printlevel mini
    print[ P_Basis ] 0
    print[ P_SCFInfo ] 1
    print[ P_SCFIterInfo ] 1
    print[ P_OrbEn ] 0
    print[ P_Cartesian ] 0
end
*xyz 0 1
 C        1.7912200000    -0.7428210000     0.5877590000 
 C        2.4862500000     0.2878910000    -0.2912980000 
 C        3.2344520000    -0.2605370000    -1.5081640000 
 C        4.6274170000    -0.8527020000    -1.3219650000 
 C        5.6153990000    -0.0149260000    -0.4721780000 
 C        5.4449080000    -1.0171210000     0.6859730000 
 C        4.8121520000    -2.0091500000    -0.3082850000 
 H        1.1729780000    -0.2519830000     1.3437070000 
 H        2.4940470000    -1.3897540000     1.1146950000 
 H        1.1349370000    -1.3840890000    -0.0079830000 
 H        3.1604590000     0.8998440000     0.3177140000 
 H        1.7237290000     0.9807920000    -0.6625870000 
 H        3.3414660000     0.5592930000    -2.2286490000 
 H        2.6006500000    -1.0079310000    -2.0029340000 
 H        5.0035160000    -1.0926640000    -2.3205920000 
 H        5.3475920000     1.0261420000    -0.2783620000 
 H        6.6249030000    -0.0338470000    -0.8879710000 
 H        4.7302590000    -0.6647330000     1.4328510000 
 H        6.3487970000    -1.3395890000     1.2054890000 
 H        3.9221420000    -2.5549130000     0.0074640000 
 H        5.5420280000    -2.7366820000    -0.6704630000 
*
