! RI PBE def2-SVP def2-SVP/J NBO PAL2
% maxcore 2000
% output
    # printlevel mini
    print[ P_Basis ] 0
    print[ P_SCFInfo ] 1
    print[ P_SCFIterInfo ] 1
    print[ P_OrbEn ] 0
    print[ P_Cartesian ] 0
end
*xyz 0 1
 C        1.6503710000     0.6493570000     1.1379230000 
 C        1.9096100000     0.1149550000    -0.2634750000 
 C        2.8397050000     0.9342960000    -1.1547630000 
 C        4.3284090000     0.9883810000    -0.8480680000 
 C        5.1518780000     1.3568700000    -2.0576580000 
 C        4.8371840000     1.5045300000     0.4656500000 
 C        4.9567690000     0.0441090000     0.1332230000 
 H        2.5209960000     0.5591960000     1.7898460000 
 H        0.8354000000     0.0981660000     1.6136830000 
 H        1.3627580000     1.7044120000     1.1110340000 
 H        2.2765690000    -0.9154010000    -0.2046470000 
 H        0.9490330000     0.0517340000    -0.7859550000 
 H        2.4623530000     1.9638540000    -1.2158620000 
 H        2.7436640000     0.5277830000    -2.1687830000 
 H        4.8380950000     2.3237640000    -2.4643700000 
 H        5.0435060000     0.6109240000    -2.8512420000 
 H        6.2129750000     1.4301860000    -1.8072970000 
 H        4.1262560000     1.8007500000     1.2250710000 
 H        5.7406000000     2.1035350000     0.4479420000 
 H        4.3187130000    -0.6462780000     0.6712130000 
 H        5.9399550000    -0.3503230000    -0.0965530000 
*
