! RI PBE def2-SVP def2-SVP/J NBO PAL2
% maxcore 2000
% output
    # printlevel mini
    print[ P_Basis ] 0
    print[ P_SCFInfo ] 1
    print[ P_SCFIterInfo ] 1
    print[ P_OrbEn ] 0
    print[ P_Cartesian ] 0
end
*xyz 0 1
 C        2.0327450000    -0.5974440000     0.1946010000 
 C        2.7612150000     0.0495460000    -0.9776650000 
 C        2.0429490000    -0.2710640000    -2.2820990000 
 C        2.8900410000     1.5634340000    -0.7927860000 
 C        4.0306880000     2.0624590000     0.0700170000 
 C        4.8354900000     1.2051870000     1.0012400000 
 C        5.4578920000     1.7394500000    -0.2523600000 
 H        2.0256570000    -1.6871490000     0.1057790000 
 H        0.9912060000    -0.2605620000     0.2218580000 
 H        2.4846970000    -0.3390880000     1.1538830000 
 H        3.7679290000    -0.3837030000    -1.0422090000 
 H        1.0459190000     0.1812820000    -2.2954560000 
 H        1.9178160000    -1.3493150000    -2.4124410000 
 H        2.5928580000     0.1121330000    -3.1454790000 
 H        1.9440960000     1.9342290000    -0.3790140000 
 H        2.9893560000     2.0368880000    -1.7768440000 
 H        3.8773310000     3.0774770000     0.4241580000 
 H        5.1396930000     1.6293540000     1.9504110000 
 H        4.6342920000     0.1422560000     1.0368180000 
 H        5.6449170000     1.0310700000    -1.0520540000 
 H        6.1978040000     2.5263580000    -0.1733390000 
*
