! RI PBE def2-SVP def2-SVP/J NBO PAL2
% maxcore 2000
% output
    # printlevel mini
    print[ P_Basis ] 0
    print[ P_SCFInfo ] 1
    print[ P_SCFIterInfo ] 1
    print[ P_OrbEn ] 0
    print[ P_Cartesian ] 0
end
*xyz 0 1
 C        3.9720600000    -0.0944540000     0.8313340000 
 C        2.7672390000    -1.0303990000     0.8311090000 
 C        1.5132340000    -0.2261640000     1.1600920000 
 C        2.6413640000    -1.8930920000    -0.4556380000 
 C        1.4660670000    -2.8616940000    -0.3121780000 
 C        3.9100930000    -2.7272700000    -0.6415120000 
 C        2.4262020000    -1.0383880000    -1.7036780000 
 H        4.9152740000    -0.6229890000     0.6857280000 
 H        4.0369400000     0.4311820000     1.7874960000 
 H        3.8872480000     0.6675600000     0.0514110000 
 H        2.9151370000    -1.7501560000     1.6484960000 
 H        1.6451270000     0.3006660000     2.1086690000 
 H        1.3121620000     0.5315630000     0.3975120000 
 H        0.6250420000    -0.8523410000     1.2562240000 
 H        0.5057630000    -2.3431540000    -0.2869580000 
 H        1.5541880000    -3.4559290000     0.6026420000 
 H        1.4399500000    -3.5549580000    -1.1573640000 
 H        4.7809760000    -2.1080020000    -0.8646320000 
 H        4.1320140000    -3.3130150000     0.2559600000 
 H        3.7861640000    -3.4269700000    -1.4725960000 
 H        1.5080070000    -0.4498250000    -1.6398940000 
 H        2.3433720000    -1.6772810000    -2.5875990000 
 H        3.2587780000    -0.3519880000    -1.8747260000 
*
