! RI PBE def2-SVP def2-SVP/J NBO PAL2
% maxcore 2000
% output
    # printlevel mini
    print[ P_Basis ] 0
    print[ P_SCFInfo ] 1
    print[ P_SCFIterInfo ] 1
    print[ P_OrbEn ] 0
    print[ P_Cartesian ] 0
end
*xyz 0 1
 C        1.4404000000     0.4918760000     1.5400320000 
 C        2.8809570000     0.4777850000     1.0460080000 
 C        3.0615910000     1.4643180000    -0.0999120000 
 C        3.2874030000    -0.9435890000     0.6591490000 
 C        4.7303920000    -1.1546980000     0.2026670000 
 C        4.9400270000    -2.6060140000    -0.2086720000 
 C        5.7402990000    -0.7511550000     1.2686180000 
 H        1.3015750000    -0.1907560000     2.3826150000 
 H        0.7541720000     0.1817380000     0.7451310000 
 H        1.1406130000     1.4918040000     1.8644570000 
 H        3.5178270000     0.8036840000     1.8778760000 
 H        2.4693070000     1.1594820000    -0.9692900000 
 H        2.7311920000     2.4651520000     0.1903680000 
 H        4.1035220000     1.5416160000    -0.4184470000 
 H        2.6153460000    -1.2869020000    -0.1390630000 
 H        3.0984950000    -1.6055340000     1.5151920000 
 H        4.9056810000    -0.5323260000    -0.6837550000 
 H        4.7858520000    -3.2771250000     0.6426820000 
 H        4.2405530000    -2.9021810000    -0.9949450000 
 H        5.9543470000    -2.7716540000    -0.5810900000 
 H        5.6727570000     0.3092450000     1.5217000000 
 H        6.7622050000    -0.9445850000     0.9318890000 
 H        5.5809860000    -1.3238790000     2.1884810000 
*
