! RI PBE def2-SVP def2-SVP/J NBO PAL2
% maxcore 2000
% output
    # printlevel mini
    print[ P_Basis ] 0
    print[ P_SCFInfo ] 1
    print[ P_SCFIterInfo ] 1
    print[ P_OrbEn ] 0
    print[ P_Cartesian ] 0
end
*xyz 0 1
 C        1.9534470000     0.9757880000    -0.5974330000 
 C        2.1151670000     1.4379450000     0.8424240000 
 C        3.4037970000     1.0174360000     1.5718080000 
 C        4.6265860000     1.5730890000     0.8443540000 
 C        3.4985290000    -0.5056030000     1.6390290000 
 C        3.3162420000     1.6074770000     2.9908150000 
 C        4.4828570000     1.3327850000     3.9270240000 
 H        1.0053660000     1.3343880000    -1.0053120000 
 H        1.9493820000    -0.1133590000    -0.6814540000 
 H        2.7474540000     1.3576270000    -1.2432450000 
 H        1.2624320000     1.0747300000     1.4289530000 
 H        2.0533720000     2.5326600000     0.8721310000 
 H        4.6968850000     1.1803800000    -0.1724260000 
 H        5.5519040000     1.3011180000     1.3570170000 
 H        4.5853890000     2.6649410000     0.7811920000 
 H        2.6334460000    -0.9320300000     2.1563450000 
 H        3.5430370000    -0.9457100000     0.6403680000 
 H        4.3981270000    -0.8250240000     2.1697750000 
 H        2.3946990000     1.2345740000     3.4542830000 
 H        3.1853390000     2.6924350000     2.8968540000 
 H        4.6247720000     0.2642490000     4.1042410000 
 H        4.3060060000     1.8002760000     4.8986170000 
 H        5.4225330000     1.7351280000     3.5417290000 
*
