! RI PBE def2-SVP def2-SVP/J NBO PAL2
% maxcore 2000
% output
    # printlevel mini
    print[ P_Basis ] 0
    print[ P_SCFInfo ] 1
    print[ P_SCFIterInfo ] 1
    print[ P_OrbEn ] 0
    print[ P_Cartesian ] 0
end
*xyz 0 1
 C        1.7242190000     0.4733540000    -0.5723330000 
 C        1.8225590000    -0.8764580000     0.1213900000 
 C        2.8991960000    -1.8423000000    -0.3817920000 
 C        2.7002400000    -3.1983100000     0.2899000000 
 C        4.3654480000    -1.3783930000    -0.2214910000 
 C        4.6584030000    -0.7483310000     1.1345750000 
 C        4.8496960000    -0.4800420000    -1.3552370000 
 H        0.8214540000     1.0017560000    -0.2555080000 
 H        1.6759200000     0.3605040000    -1.6591960000 
 H        2.5721640000     1.1216460000    -0.3450350000 
 H        0.8597060000    -1.3881720000     0.0128040000 
 H        1.9502030000    -0.7256280000     1.1996340000 
 H        2.7315040000    -1.9841790000    -1.4584130000 
 H        1.6820600000    -3.5678330000     0.1427190000 
 H        3.3892000000    -3.9459980000    -0.1110900000 
 H        2.8702500000    -3.1361140000     1.3693850000 
 H        4.9674450000    -2.2943610000    -0.2835060000 
 H        4.1634670000     0.2205480000     1.2427010000 
 H        4.3308160000    -1.3840110000     1.9609530000 
 H        5.7317850000    -0.5804690000     1.2545340000 
 H        4.6680290000    -0.9425550000    -2.3292940000 
 H        5.9252600000    -0.3013880000    -1.2688590000 
 H        4.3569470000     0.4937420000    -1.3539600000 
*
