! RI PBE def2-SVP def2-SVP/J NBO PAL2
% maxcore 2000
% output
    # printlevel mini
    print[ P_Basis ] 0
    print[ P_SCFInfo ] 1
    print[ P_SCFIterInfo ] 1
    print[ P_OrbEn ] 0
    print[ P_Cartesian ] 0
end
*xyz 0 1
 C        2.0780810000     1.6289790000     2.0504810000 
 C        2.0274460000     0.2275830000     2.6377620000 
 C        2.5777360000    -0.8829220000     1.7389240000 
 C        1.7925130000    -0.9742510000     0.4296780000 
 C        2.2857230000    -2.0193640000    -0.5582420000 
 C        2.6111250000    -2.2192020000     2.5009690000 
 C        3.8769580000    -3.0373930000     2.2917000000 
 H        1.7784820000     2.3726980000     2.7927770000 
 H        1.4133260000     1.7437790000     1.1919780000 
 H        3.0909900000     1.8807010000     1.7216310000 
 H        0.9939720000    -0.0204540000     2.9124770000 
 H        2.5960920000     0.2176600000     3.5743360000 
 H        3.6145430000    -0.6136030000     1.4875650000 
 H        1.8079720000     0.0019610000    -0.0639600000 
 H        0.7405960000    -1.1735660000     0.6734700000 
 H        2.1992770000    -3.0328110000    -0.1598900000 
 H        1.7044980000    -1.9831150000    -1.4828530000 
 H        3.3343750000    -1.8536730000    -0.8216160000 
 H        1.7333610000    -2.8164240000     2.2270660000 
 H        2.5062140000    -2.0194550000     3.5726730000 
 H        4.0367610000    -3.2845530000     1.2403690000 
 H        3.8406130000    -3.9753700000     2.8518210000 
 H        4.7557450000    -2.4831040000     2.6336040000 
*
