! RI PBE def2-SVP def2-SVP/J NBO PAL2
% maxcore 2000
% output
    # printlevel mini
    print[ P_Basis ] 0
    print[ P_SCFInfo ] 1
    print[ P_SCFIterInfo ] 1
    print[ P_OrbEn ] 0
    print[ P_Cartesian ] 0
end
*xyz 0 1
 C        1.3722770000    -0.7595960000     1.6714820000 
 C        2.7389250000    -1.2663740000     1.2384650000 
 C        3.7066720000    -0.1286810000     0.9479730000 
 C        5.1269810000    -0.5082080000     0.4994380000 
 C        5.0914660000    -1.3018490000    -0.8055120000 
 C        5.8366840000    -1.3275950000     1.5759830000 
 C        5.9080600000     0.7841270000     0.2689990000 
 H        0.6852810000    -1.5837660000     1.8775490000 
 H        0.9188540000    -0.1353460000     0.8962070000 
 H        1.4453270000    -0.1534480000     2.5789950000 
 H        2.6230720000    -1.8959690000     0.3503220000 
 H        3.1459750000    -1.9139850000     2.0217400000 
 H        3.7896140000     0.4973520000     1.8461970000 
 H        3.2667560000     0.5154390000     0.1751940000 
 H        4.5877600000    -2.2636430000    -0.6840900000 
 H        6.1061690000    -1.5055110000    -1.1595680000 
 H        4.5705990000    -0.7449690000    -1.5902830000 
 H        5.8593260000    -0.7895540000     2.5284980000 
 H        5.3477660000    -2.2899540000     1.7443100000 
 H        6.8709950000    -1.5318190000     1.2845210000 
 H        5.4332520000     1.3976420000    -0.5021610000 
 H        6.9313800000     0.5721350000    -0.0535420000 
 H        5.9612980000     1.3793620000     1.1851820000 
*
