! RI PBE def2-SVP def2-SVP/J NBO PAL2
% maxcore 2000
% output
    # printlevel mini
    print[ P_Basis ] 0
    print[ P_SCFInfo ] 1
    print[ P_SCFIterInfo ] 1
    print[ P_OrbEn ] 0
    print[ P_Cartesian ] 0
end
*xyz 0 1
 C        0.2818790000     1.5153490000     0.5153100000 
 C        1.2045900000     0.4594570000    -0.1389560000 
 C        0.2087990000    -0.4122450000    -0.9550680000 
 C       -0.7753550000     0.6635260000    -1.4307880000 
 C       -1.1266800000     1.1159970000    -0.0081140000 
 C       -1.4393670000    -0.2172150000     0.6304440000 
 C       -0.6444920000    -1.1268120000     0.0668340000 
 H        0.5382890000     2.5246520000     0.1835410000 
 H        0.3280750000     1.5037810000     1.6052580000 
 H        1.7581120000    -0.1327170000     0.5912480000 
 H        1.9327580000     0.9289300000    -0.8051930000 
 H        0.6749640000    -1.0358720000    -1.7172130000 
 H       -1.6307460000     0.2481390000    -1.9667660000 
 H       -0.3022950000     1.4477230000    -2.0292070000 
 H       -1.8838690000     1.8923110000     0.0971900000 
 H       -2.0976920000    -0.3590070000     1.4787220000 
 H       -0.5222700000    -2.1618060000     0.3616580000 
*
