! RI PBE def2-SVP def2-SVP/J NBO PAL2
% maxcore 2000
% output
    # printlevel mini
    print[ P_Basis ] 0
    print[ P_SCFInfo ] 1
    print[ P_SCFIterInfo ] 1
    print[ P_OrbEn ] 0
    print[ P_Cartesian ] 0
end
*xyz 0 1
 C        0.8331840000    -1.2064690000     0.8665320000 
 C        1.1294750000    -0.4016740000    -0.3541260000 
 C        0.9694500000     1.0963780000    -0.3963210000 
 C       -0.2429320000     1.6062020000     0.3841080000 
 C       -1.4690600000     0.7851510000     0.1284510000 
 C       -1.4034030000    -0.5057900000    -0.1909450000 
 C       -0.1250440000    -1.2333510000    -0.3042680000 
 H        0.4904940000    -0.6975030000     1.7594070000 
 H        1.4305600000    -2.0909440000     1.0522120000 
 H        1.9207010000    -0.7873850000    -0.9890650000 
 H        0.8575610000     1.3913690000    -1.4456230000 
 H        1.8769250000     1.5852770000    -0.0286430000 
 H       -0.4286160000     2.6526700000     0.1252270000 
 H       -0.0181700000     1.6090210000     1.4582220000 
 H       -2.4370890000     1.2670380000     0.2235190000 
 H       -2.3167180000    -1.0663560000    -0.3666130000 
 H       -0.1459080000    -2.1473420000    -0.8865830000 
*
