! RI PBE def2-SVP def2-SVP/J NBO PAL2
% maxcore 2000
% output
    # printlevel mini
    print[ P_Basis ] 0
    print[ P_SCFInfo ] 1
    print[ P_SCFIterInfo ] 1
    print[ P_OrbEn ] 0
    print[ P_Cartesian ] 0
end
*xyz 0 1
 C        1.5756350000    -0.2115450000     0.5191980000 
 C        0.8565330000    -1.5563950000     0.2908280000 
 C       -0.2355440000    -0.8054170000    -0.5049870000 
 C       -1.4071230000    -0.3260040000     0.2927410000 
 C       -1.3680800000     0.9829680000     0.5256960000 
 C       -0.1638870000     1.6454140000    -0.0831720000 
 C        0.6753680000     0.4551200000    -0.5469640000 
 H        2.6501450000    -0.1959520000     0.3300100000 
 H        1.3953730000     0.1989110000     1.5150700000 
 H        0.5317300000    -2.1044720000     1.1776440000 
 H        1.4303490000    -2.2335520000    -0.3453120000 
 H       -0.5392050000    -1.2697420000    -1.4484290000 
 H       -2.1963700000    -0.9891280000     0.6315210000 
 H       -2.1216320000     1.5316030000     1.0804660000 
 H        0.3781810000     2.2702770000     0.6364110000 
 H       -0.4548340000     2.3066040000    -0.9088790000 
 H        1.1897520000     0.6244010000    -1.4935530000 
*
