! RI PBE def2-SVP def2-SVP/J NBO PAL2
% maxcore 2000
% output
    # printlevel mini
    print[ P_Basis ] 0
    print[ P_SCFInfo ] 1
    print[ P_SCFIterInfo ] 1
    print[ P_OrbEn ] 0
    print[ P_Cartesian ] 0
end
*xyz 0 1
 C       -1.0056520000    -0.0088030000    -1.0792870000 
 C       -0.6440570000     1.0404700000    -0.0037730000 
 C       -1.0337580000    -0.0332470000     1.0372450000 
 C       -0.6044690000    -1.0713340000    -0.0276370000 
 C        0.8976830000    -1.1659140000    -0.0087810000 
 C        1.5972710000    -0.0359650000     0.0135570000 
 C        0.8651300000     1.2743460000     0.0189670000 
 H       -0.4535620000     0.0004950000    -2.0214260000 
 H       -2.0800840000    -0.0184590000    -1.2743580000 
 H       -1.1944190000     1.9835040000    -0.0001900000 
 H       -2.1129870000    -0.0470760000     1.2034440000 
 H       -0.5068800000    -0.0458760000     1.9936740000 
 H       -1.0957490000    -2.0441880000    -0.0453970000 
 H        1.3803240000    -2.1378820000    -0.0135960000 
 H        2.6825670000    -0.0355660000     0.0279740000 
 H        1.1669970000     1.8795600000    -0.8455600000 
 H        1.1437550000     1.8593450000     0.9049440000 
*
