! RI PBE def2-SVP def2-SVP/J NBO PAL2
% maxcore 2000
% output
    # printlevel mini
    print[ P_Basis ] 0
    print[ P_SCFInfo ] 1
    print[ P_SCFIterInfo ] 1
    print[ P_OrbEn ] 0
    print[ P_Cartesian ] 0
end
*xyz 0 1
 C        2.0991690000    -0.1988260000    -0.0563700000 
 C        0.7453840000    -0.7993370000     0.1836370000 
 C       -0.3968790000    -1.4280270000    -0.5567310000 
 C       -1.5591440000    -0.4924920000    -0.2375280000 
 C       -1.4379620000     0.7354690000     0.2873190000 
 C       -0.1156490000     1.4499170000     0.5501530000 
 C        0.8633690000     0.6322880000    -0.2380120000 
 H        2.6572280000    -0.3898280000    -0.9668000000 
 H        2.7224490000    -0.1130470000     0.8273450000 
 H        0.5648970000    -0.8640070000     1.2558610000 
 H       -0.6382800000    -2.4443910000    -0.2251990000 
 H       -0.2273560000    -1.4809090000    -1.6387780000 
 H       -2.5616130000    -0.8737990000    -0.4152760000 
 H       -2.3483780000     1.2870640000     0.5082670000 
 H        0.1089130000     1.4678860000     1.6232800000 
 H       -0.1884740000     2.4942050000     0.2255800000 
 H        0.6494350000     0.7321230000    -1.3013480000 
*
