! RI PBE def2-SVP def2-SVP/J NBO PAL2
% maxcore 2000
% output
    # printlevel mini
    print[ P_Basis ] 0
    print[ P_SCFInfo ] 1
    print[ P_SCFIterInfo ] 1
    print[ P_OrbEn ] 0
    print[ P_Cartesian ] 0
end
*xyz 0 1
 C       -1.4020270000     0.6973820000     0.2968770000 
 C       -1.4777850000    -0.7667860000    -0.1126130000 
 C       -0.2823260000    -1.6025640000     0.2066290000 
 C        0.9938900000    -1.2171970000     0.3159560000 
 C        1.5986900000     0.0909730000     0.1078250000 
 C        1.0373730000     1.2525710000    -0.2455790000 
 C       -0.4072090000     1.5512830000    -0.4765340000 
 H       -1.1663940000     0.7560520000     1.3643080000 
 H       -2.3964690000     1.1374020000     0.1734350000 
 H       -1.6924240000    -0.8407830000    -1.1877370000 
 H       -2.3459950000    -1.2192820000     0.3793290000 
 H       -0.4862900000    -2.6574870000     0.3733440000 
 H        1.7071000000    -1.9969920000     0.5703500000 
 H        2.6781530000     0.1025600000     0.2346910000 
 H        1.7112070000     2.0951050000    -0.3811630000 
 H       -0.6206600000     1.4868810000    -1.5525240000 
 H       -0.5790430000     2.6021940000    -0.2182940000 
*
