! RI PBE def2-SVP def2-SVP/J NBO PAL2
% maxcore 2000
% output
    # printlevel mini
    print[ P_Basis ] 0
    print[ P_SCFInfo ] 1
    print[ P_SCFIterInfo ] 1
    print[ P_OrbEn ] 0
    print[ P_Cartesian ] 0
end
*xyz 0 1
 C        1.1253900000     1.1697320000    -0.3289610000 
 C       -0.1616480000     1.6058100000     0.3645170000 
 C       -1.3880860000     0.8280220000     0.0000490000 
 C       -1.5184990000    -0.4855420000    -0.1533010000 
 C       -0.5245130000    -1.5869830000     0.0217750000 
 C        0.9342510000    -1.3148110000     0.1942760000 
 C        1.6279880000    -0.1922410000     0.0375930000 
 H        1.9066800000     1.8996410000    -0.0963110000 
 H        0.9783090000     1.2273470000    -1.4144940000 
 H       -0.3394650000     2.6597300000     0.1301460000 
 H       -0.0091280000     1.5641530000     1.4500280000 
 H       -2.2880000000     1.4208270000    -0.1463520000 
 H       -2.5120430000    -0.8472730000    -0.4110000000 
 H       -0.6271040000    -2.2770510000    -0.8296050000 
 H       -0.8610390000    -2.1948140000     0.8755190000 
 H        1.5044390000    -2.2049060000     0.4531370000 
 H        2.7031670000    -0.2673610000     0.1826750000 
*
