! RI PBE def2-SVP def2-SVP/J NBO PAL2
% maxcore 2000
% output
    # printlevel mini
    print[ P_Basis ] 0
    print[ P_SCFInfo ] 1
    print[ P_SCFIterInfo ] 1
    print[ P_OrbEn ] 0
    print[ P_Cartesian ] 0
end
*xyz 0 1
 C        1.7239460000    -0.1464110000    -0.0163180000 
 C        0.8140910000    -1.2517750000     0.5112970000 
 C       -0.4250190000    -1.5215210000    -0.3369960000 
 C       -1.5330410000    -0.5250200000    -0.1478990000 
 C       -1.4239360000     0.7576040000     0.1895460000 
 C       -0.1643220000     1.5598090000     0.3517040000 
 C        0.9945060000     1.0936910000    -0.5244440000 
 H        2.3438710000    -0.5409530000    -0.8291370000 
 H        2.4189170000     0.1400950000     0.7809150000 
 H        0.4789900000    -1.0017390000     1.5235040000 
 H        1.3988540000    -2.1722650000     0.6049790000 
 H       -0.8216640000    -2.5087660000    -0.0789790000 
 H       -0.1519580000    -1.5928210000    -1.3990390000 
 H       -2.5392820000    -0.9187190000    -0.2722690000 
 H       -2.3494840000     1.3098400000     0.3358120000 
 H        0.1409470000     1.5833700000     1.4070860000 
 H       -0.4005930000     2.5990650000     0.1013180000 
 H        1.7191670000     1.9067970000    -0.6328510000 
 H        0.6000020000     0.9040190000    -1.5283190000 
*
