! RI PBE def2-SVP def2-SVP/J NBO PAL2
% maxcore 2000
% output
    # printlevel mini
    print[ P_Basis ] 0
    print[ P_SCFInfo ] 1
    print[ P_SCFIterInfo ] 1
    print[ P_OrbEn ] 0
    print[ P_Cartesian ] 0
end
*xyz 0 1
 C        0.8492030000     0.0913680000    -0.3743420000 
 C        2.1955380000     0.0035480000     0.2853800000 
 C        2.7206880000    -1.2908890000     0.9818160000 
 C        4.0774370000    -0.5460190000     0.8517410000 
 C        3.5351760000    -0.0436690000    -0.5143180000 
 C        3.8009210000     0.6765900000     1.7204110000 
 C        2.5738410000     1.0356320000     1.3516980000 
 H        0.7161040000    -0.7050250000    -1.1107380000 
 H        0.7259050000     1.0478090000    -0.8905920000 
 H        0.0443900000     0.0041360000     0.3612950000 
 H        2.6497580000    -2.1743890000     0.3401360000 
 H        2.3564870000    -1.5029340000     1.9889800000 
 H        5.0349610000    -1.0545390000     0.9490960000 
 H        3.5372080000    -0.8154390000    -1.2900250000 
 H        3.9267250000     0.9015600000    -0.8953900000 
 H        4.4656870000     1.1174060000     2.4497820000 
 H        1.9538730000     1.8527650000     1.6953710000 
*
