! RI PBE def2-SVP def2-SVP/J NBO PAL2
% maxcore 2000
% output
    # printlevel mini
    print[ P_Basis ] 0
    print[ P_SCFInfo ] 1
    print[ P_SCFIterInfo ] 1
    print[ P_OrbEn ] 0
    print[ P_Cartesian ] 0
end
*xyz 0 1
 C        1.3206620000     0.2905170000     0.7015520000 
 C        2.6016940000    -0.1260850000     0.0405360000 
 C        3.3594990000     0.8652870000    -0.7865130000 
 C        3.9542250000     0.3686030000     0.5086560000 
 C        4.8747850000    -0.7832270000     0.3611500000 
 C        4.2487980000    -1.8479530000    -0.1361380000 
 C        2.7807430000    -1.5924720000    -0.3325770000 
 H        1.3510450000     1.3423420000     0.9958570000 
 H        1.1288770000    -0.3038860000     1.5998500000 
 H        0.4678750000     0.1609630000     0.0276950000 
 H        2.9723750000     1.8782870000    -0.8021060000 
 H        3.8329760000     0.5388320000    -1.7059160000 
 H        4.0563500000     1.0602350000     1.3373400000 
 H        5.9317600000    -0.7331500000     0.5959490000 
 H        4.7228100000    -2.7891530000    -0.3887120000 
 H        2.1774680000    -2.2385010000     0.3187840000 
 H        2.4549570000    -1.8002380000    -1.3583060000 
*
