! RI PBE def2-SVP def2-SVP/J NBO PAL2
% maxcore 2000
% output
    # printlevel mini
    print[ P_Basis ] 0
    print[ P_SCFInfo ] 1
    print[ P_SCFIterInfo ] 1
    print[ P_OrbEn ] 0
    print[ P_Cartesian ] 0
end
*xyz 0 1
 C        1.0446500000    -0.1518900000    -0.1947760000 
 C        2.4697370000     0.2846980000     0.0252800000 
 C        3.6816850000    -0.5229930000    -0.5465660000 
 C        4.4837480000     0.7969390000    -0.3673960000 
 C        3.1337070000     1.4108180000    -0.8344810000 
 C        3.0452030000     0.8105430000    -2.2334850000 
 C        3.4045670000    -0.4576580000    -2.0446700000 
 H        0.8237430000    -1.0541400000     0.3824980000 
 H        0.8482270000    -0.3642620000    -1.2473300000 
 H        0.3479240000     0.6250060000     0.1324950000 
 H        2.6381290000     0.4906700000     1.0882250000 
 H        4.0061380000    -1.4688770000    -0.1138760000 
 H        5.3469320000     0.9446980000    -1.0178250000 
 H        4.7261960000     1.0208500000     0.6750880000 
 H        2.8915400000     2.4645360000    -0.6995000000 
 H        2.7505300000     1.3192790000    -3.1403060000 
 H        3.4837430000    -1.2682360000    -2.7550650000 
*
