! RI PBE def2-SVP def2-SVP/J NBO PAL2
% maxcore 2000
% output
    # printlevel mini
    print[ P_Basis ] 0
    print[ P_SCFInfo ] 1
    print[ P_SCFIterInfo ] 1
    print[ P_OrbEn ] 0
    print[ P_Cartesian ] 0
end
*xyz 0 1
 C        0.9311530000    -0.0700790000    -0.5607000000 
 C        2.2361410000    -0.0737400000     0.1800490000 
 C        3.4459770000     0.6905540000    -0.2669820000 
 C        3.5345940000     1.1478480000    -1.7136070000 
 C        3.5555570000    -0.1341300000    -2.4990220000 
 C        3.5439160000    -1.2024780000    -1.7044650000 
 C        3.4697540000    -0.8267200000    -0.2739980000 
 H        0.3773430000     0.8517800000    -0.3604960000 
 H        0.3041820000    -0.9092420000    -0.2476250000 
 H        1.0750150000    -0.1483250000    -1.6394220000 
 H        2.1195140000    -0.0821100000     1.2605220000 
 H        3.9976490000     1.2442650000     0.4826830000 
 H        4.4397000000     1.7397880000    -1.8904920000 
 H        2.6903910000     1.7867450000    -2.0023010000 
 H        3.5495080000    -0.1617550000    -3.5827380000 
 H        3.5550620000    -2.2310250000    -2.0463050000 
 H        4.0191330000    -1.4002450000     0.4637810000 
*
