! RI PBE def2-SVP def2-SVP/J NBO PAL2
% maxcore 2000
% output
    # printlevel mini
    print[ P_Basis ] 0
    print[ P_SCFInfo ] 1
    print[ P_SCFIterInfo ] 1
    print[ P_OrbEn ] 0
    print[ P_Cartesian ] 0
end
*xyz 0 1
 C        0.9167460000     0.1519040000    -0.2716810000 
 C        2.4041380000    -0.0178930000    -0.1463780000 
 C        3.1717170000    -0.7646480000    -1.1940900000 
 C        3.3225230000     0.7323890000    -1.0544440000 
 C        4.6218050000     1.3108190000    -0.6277250000 
 C        5.5579130000     1.6364750000    -1.7507450000 
 C        4.9475750000     1.5220350000     0.6443050000 
 H        0.3835550000    -0.7211980000     0.1145470000 
 H        0.6260370000     0.2803160000    -1.3178760000 
 H        0.5682670000     1.0293300000     0.2798900000 
 H        2.7609480000    -0.1599000000     0.8685080000 
 H        2.6296780000    -1.1462000000    -2.0521320000 
 H        4.0069290000    -1.3753530000    -0.8725340000 
 H        2.8304680000     1.3012700000    -1.8411790000 
 H        5.7647580000     0.7458620000    -2.3526020000 
 H        6.5037650000     2.0387220000    -1.3858760000 
 H        5.1093690000     2.3727350000    -2.4261250000 
 H        4.2615720000     1.3059360000     1.4546930000 
 H        5.9175360000     1.9242790000     0.9150430000 
*
