! RI PBE def2-SVP def2-SVP/J NBO PAL2
% maxcore 2000
% output
    # printlevel mini
    print[ P_Basis ] 0
    print[ P_SCFInfo ] 1
    print[ P_SCFIterInfo ] 1
    print[ P_OrbEn ] 0
    print[ P_Cartesian ] 0
end
*xyz 0 1
 C        0.6631640000     0.1559030000    -0.9096670000 
 C        1.9559600000    -0.0929900000    -0.1867460000 
 C        2.7713400000    -1.3140880000    -0.4938790000 
 C        3.2701070000     0.0427240000    -0.8940700000 
 C        4.4619160000     0.6492590000    -0.1952420000 
 C        4.4713530000     2.1419300000    -0.2636750000 
 C        5.4437480000     2.8751810000    -0.7873280000 
 H       -0.1647180000    -0.3863950000    -0.4442100000 
 H        0.7307420000    -0.1743870000    -1.9497330000 
 H        0.4063230000     1.2189480000    -0.9158580000 
 H        1.9612860000     0.2160660000     0.8555770000 
 H        2.4110190000    -1.9774770000    -1.2717190000 
 H        3.2774740000    -1.8160230000     0.3229590000 
 H        3.2048220000     0.2781960000    -1.9529630000 
 H        5.3912460000     0.2553200000    -0.6206240000 
 H        4.4404060000     0.3345580000     0.8564410000 
 H        3.5925600000     2.6402320000     0.1428700000 
 H        6.3338430000     2.4163990000    -1.2078120000 
 H        5.3896280000     3.9574440000    -0.8138890000 
*
