! RI PBE def2-SVP def2-SVP/J NBO PAL2
% maxcore 2000
% output
    # printlevel mini
    print[ P_Basis ] 0
    print[ P_SCFInfo ] 1
    print[ P_SCFIterInfo ] 1
    print[ P_OrbEn ] 0
    print[ P_Cartesian ] 0
end
*xyz 0 1
 C        1.0240720000     0.0222880000     0.1144020000 
 C        2.3480620000     0.0225180000     0.0978250000 
 C        3.3121380000    -1.1526490000     0.1378870000 
 C        4.6232690000    -0.3596810000     0.0863670000 
 C        4.3187410000     0.6833250000    -1.0103800000 
 C        3.2867990000     1.1896610000     0.0343480000 
 C        4.3450030000     0.7766210000     1.0937580000 
 H        0.4572410000    -0.9013750000     0.1624510000 
 H        0.4593860000     0.9476200000     0.0804340000 
 H        3.1894850000    -1.8226610000    -0.7175590000 
 H        3.2115640000    -1.7442280000     1.0520330000 
 H        5.5531670000    -0.9268250000     0.0999070000 
 H        3.9421960000     0.3311670000    -1.9736320000 
 H        5.1366490000     1.3919740000    -1.1511480000 
 H        2.8536930000     2.1877870000    -0.0045040000 
 H        3.9929550000     0.5115030000     2.0934720000 
 H        5.1653800000     1.4940440000     1.1508480000 
*
