! RI PBE def2-SVP def2-SVP/J NBO PAL2
% maxcore 2000
% output
    # printlevel mini
    print[ P_Basis ] 0
    print[ P_SCFInfo ] 1
    print[ P_SCFIterInfo ] 1
    print[ P_OrbEn ] 0
    print[ P_Cartesian ] 0
end
*xyz 0 1
 C        0.8951020000     0.0531690000    -0.2732490000 
 C        2.3335360000     0.0716720000     0.1025090000 
 C        3.1037350000     1.1406060000     0.3139090000 
 C        4.5152400000     0.7741990000     0.5810240000 
 C        5.2129060000     0.0732880000    -0.5547980000 
 C        4.5448750000    -0.7352600000     0.5127550000 
 C        3.1232330000    -1.2038630000     0.2749250000 
 H        0.4784670000     1.0608370000    -0.3149880000 
 H        0.3087180000    -0.5315960000     0.4440370000 
 H        0.7465250000    -0.4155190000    -1.2520680000 
 H        2.7600700000     2.1677640000     0.2554470000 
 H        5.1066410000     1.3332270000     1.2966010000 
 H        6.2968250000     0.0754260000    -0.5597060000 
 H        4.7492500000     0.1311170000    -1.5335500000 
 H        5.1793610000    -1.3021990000     1.1820940000 
 H        2.7420800000    -1.7813360000     1.1267560000 
 H        3.0358260000    -1.8565340000    -0.6021860000 
*
