! RI PBE def2-SVP def2-SVP/J NBO PAL2
% maxcore 2000
% output
    # printlevel mini
    print[ P_Basis ] 0
    print[ P_SCFInfo ] 1
    print[ P_SCFIterInfo ] 1
    print[ P_OrbEn ] 0
    print[ P_Cartesian ] 0
end
*xyz 0 1
 C        0.9464170000    -0.0595720000     0.1214630000 
 C        2.4617070000    -0.0594750000     0.0093060000 
 C        3.2359930000     1.0148220000     0.8326350000 
 C        4.2615010000    -0.0595040000     1.2291530000 
 C        3.2361100000    -1.1338570000     0.8324390000 
 C        2.8784570000    -0.0592690000    -1.3841150000 
 C        3.2188450000    -0.0592650000    -2.5368600000 
 H        0.6482970000    -0.0596860000     1.1727450000 
 H        0.5203180000    -0.9432590000    -0.3591860000 
 H        0.5202140000     0.8241510000    -0.3590260000 
 H        2.6310400000     1.3349550000     1.6843260000 
 H        3.5883890000     1.8928760000     0.2917430000 
 H        4.6189680000    -0.0595830000     2.2592130000 
 H        5.1216860000    -0.0594060000     0.5581430000 
 H        2.6312280000    -1.4542060000     1.6841020000 
 H        3.5885960000    -2.0117780000     0.2913900000 
 H        3.5199550000    -0.0592350000    -3.5574710000 
*
