! RI PBE def2-SVP def2-SVP/J NBO PAL2
% maxcore 2000
% output
    # printlevel mini
    print[ P_Basis ] 0
    print[ P_SCFInfo ] 1
    print[ P_SCFIterInfo ] 1
    print[ P_OrbEn ] 0
    print[ P_Cartesian ] 0
end
*xyz 0 1
 C        1.1402640000    -0.1688540000     0.2312560000 
 C        2.6128440000    -0.0856130000    -0.0516980000 
 C        3.2547060000    -0.7138060000    -1.2563020000 
 C        2.4730150000    -1.4811050000    -2.2863980000 
 C        3.1529740000     0.7791270000    -1.1714160000 
 C        4.3133830000     1.6637450000    -0.9513710000 
 C        5.5942090000     1.3169290000    -0.9867690000 
 H        0.8856430000    -1.1072630000     0.7327490000 
 H        0.5435550000    -0.1098590000    -0.6808900000 
 H        0.8230450000     0.6500750000     0.8826020000 
 H        3.2386060000    -0.0909200000     0.8362870000 
 H        4.2444680000    -1.1185860000    -1.0693950000 
 H        1.5030890000    -1.0226790000    -2.4875480000 
 H        2.2929970000    -2.5105890000    -1.9639520000 
 H        3.0173560000    -1.5194390000    -3.2336370000 
 H        2.3723780000     1.2188720000    -1.7892280000 
 H        4.0652570000     2.6992010000    -0.7221780000 
 H        5.9112630000     0.3067100000    -1.2231150000 
 H        6.3756280000     2.0387540000    -0.7807970000 
*
