! RI PBE def2-SVP def2-SVP/J NBO PAL2
% maxcore 2000
% output
    # printlevel mini
    print[ P_Basis ] 0
    print[ P_SCFInfo ] 1
    print[ P_SCFIterInfo ] 1
    print[ P_OrbEn ] 0
    print[ P_Cartesian ] 0
end
*xyz 0 1
 C        0.9508160000     0.1646890000    -0.0465180000 
 C        2.4493700000     0.0759810000    -0.0787330000 
 C        3.2037810000    -0.7003240000    -1.1116930000 
 C        2.5359520000    -1.4662320000    -2.2171360000 
 C        3.2361130000     0.8134440000    -1.1420140000 
 C        4.4288930000     1.5259210000    -0.8062090000 
 C        5.4345640000     2.1183680000    -0.5167670000 
 H        0.5174290000    -0.6973950000     0.4683100000 
 H        0.5191960000     0.2032270000    -1.0482120000 
 H        0.6298030000     1.0647350000     0.4837980000 
 H        2.9189300000     0.0925910000     0.8994860000 
 H        4.1242450000    -1.1478690000    -0.7509710000 
 H        1.6466630000    -0.9565200000    -2.5920180000 
 H        2.2301590000    -2.4597520000    -1.8773290000 
 H        3.2182220000    -1.5985480000    -3.0605590000 
 H        2.6362090000     1.2712220000    -1.9240510000 
 H        6.3238530000     2.6438420000    -0.2621940000 
*
