! RI PBE def2-SVP def2-SVP/J NBO PAL2
% maxcore 2000
% output
    # printlevel mini
    print[ P_Basis ] 0
    print[ P_SCFInfo ] 1
    print[ P_SCFIterInfo ] 1
    print[ P_OrbEn ] 0
    print[ P_Cartesian ] 0
end
*xyz 0 1
 C        0.8070260000    -0.2228200000     0.2021060000 
 C        2.3098570000    -0.1216830000     0.1002900000 
 C        3.0170680000     1.1130560000     0.6933820000 
 C        4.1524180000     0.1938140000     1.2180940000 
 C        3.1813900000    -1.0006980000     1.0191050000 
 C        5.3457300000     0.1502360000     0.3331520000 
 C        6.5999130000     0.3095970000     0.7348140000 
 H        0.3138710000     0.5412360000    -0.4057390000 
 H        0.4778340000    -0.0889140000     1.2371360000 
 H        0.4491570000    -1.1990440000    -0.1375620000 
 H        2.6178920000    -0.2582310000    -0.9412510000 
 H        2.4435180000     1.5370860000     1.5220610000 
 H        3.3008810000     1.9202490000     0.0151650000 
 H        4.4683290000     0.3770040000     2.2475420000 
 H        2.6593120000    -1.2387690000     1.9498210000 
 H        3.5995110000    -1.9213350000     0.6071680000 
 H        5.1526600000    -0.0278270000    -0.7248750000 
 H        6.8401980000     0.4890600000     1.7784810000 
 H        7.4299350000     0.2668730000     0.0391090000 
*
