! RI PBE def2-SVP def2-SVP/J NBO PAL2
% maxcore 2000
% output
    # printlevel mini
    print[ P_Basis ] 0
    print[ P_SCFInfo ] 1
    print[ P_SCFIterInfo ] 1
    print[ P_OrbEn ] 0
    print[ P_Cartesian ] 0
end
*xyz 0 1
 C        1.0364680000    -0.1424910000     0.1579490000 
 C        2.5283150000     0.0774380000     0.1959650000 
 C        3.1183780000     1.2307730000     1.0296440000 
 C        4.2976740000     0.3093620000     1.3834350000 
 C        3.4111780000    -0.9032270000     1.0152540000 
 C        4.0168580000    -2.0680390000     0.3284810000 
 C        3.8776640000    -3.3362810000     0.6941740000 
 H        0.5281190000     0.6673780000    -0.3731990000 
 H        0.6238980000    -0.1876190000     1.1702300000 
 H        0.7876650000    -1.0800170000    -0.3472380000 
 H        2.9278630000     0.1308660000    -0.8235370000 
 H        2.4959590000     1.4359430000     1.9053200000 
 H        3.3319110000     2.1744780000     0.5249320000 
 H        4.7050850000     0.3462460000     2.3947330000 
 H        5.1197500000     0.4195800000     0.6712260000 
 H        2.8527190000    -1.2356930000     1.8975310000 
 H        4.6172700000    -1.8363730000    -0.5516850000 
 H        3.2904290000    -3.6116580000     1.5651520000 
 H        4.3442660000    -4.1434870000     0.1412530000 
*
