! RI PBE def2-SVP def2-SVP/J NBO PAL2
% maxcore 2000
% output
    # printlevel mini
    print[ P_Basis ] 0
    print[ P_SCFInfo ] 1
    print[ P_SCFIterInfo ] 1
    print[ P_OrbEn ] 0
    print[ P_Cartesian ] 0
end
*xyz 0 1
 C        1.3835700000     0.0399420000     0.7173430000 
 C        2.4440960000    -0.1245460000    -0.0651660000 
 C        2.8832100000    -1.4164860000    -0.7105990000 
 C        4.4141700000    -1.3145450000    -0.7844960000 
 C        4.7017450000     0.1711080000    -0.8427490000 
 C        3.9178110000     0.9817170000    -1.8162420000 
 C        3.4600150000     0.9015990000    -0.3795140000 
 H        0.7219170000    -0.7860450000     0.9530290000 
 H        1.1432330000     1.0053680000     1.1485700000 
 H        2.4556390000    -1.4887600000    -1.7163080000 
 H        2.5384870000    -2.2924730000    -0.1597530000 
 H        4.8319090000    -1.8640080000    -1.6324730000 
 H        4.8600390000    -1.7271690000     0.1253850000 
 H        5.6836380000     0.5248890000    -0.5524710000 
 H        3.3322650000     0.4824350000    -2.5796640000 
 H        4.3413220000     1.9284090000    -2.1281490000 
 H        3.5134350000     1.7968540000     0.2270590000 
*
