! RI PBE def2-SVP def2-SVP/J NBO PAL2
% maxcore 2000
% output
    # printlevel mini
    print[ P_Basis ] 0
    print[ P_SCFInfo ] 1
    print[ P_SCFIterInfo ] 1
    print[ P_OrbEn ] 0
    print[ P_Cartesian ] 0
end
*xyz 0 1
 C        1.0233710000    -0.1079500000     0.0191430000 
 C        2.3441460000     0.0635670000     0.0917600000 
 C        3.0857960000     1.2870980000    -0.2125010000 
 C        4.3856740000     1.1413430000     0.0729590000 
 C        4.6836410000    -0.2316570000     0.5496010000 
 C        4.4269990000    -1.3131470000    -0.4631950000 
 C        3.3524800000    -0.9441080000     0.5263290000 
 H        0.3723340000     0.6921680000    -0.3137620000 
 H        0.5574080000    -1.0485000000     0.2884370000 
 H        2.6254410000     2.1714020000    -0.6352510000 
 H        5.1473840000     1.8997190000    -0.0616360000 
 H        5.4177630000    -0.4012900000     1.3277760000 
 H        4.9115000000    -2.2705070000    -0.3111060000 
 H        4.3021390000    -1.0148410000    -1.4972950000 
 H        3.0873240000    -1.6751880000     1.2789310000 
*
