! RI PBE def2-SVP def2-SVP/J NBO PAL2
% maxcore 2000
% output
    # printlevel mini
    print[ P_Basis ] 0
    print[ P_SCFInfo ] 1
    print[ P_SCFIterInfo ] 1
    print[ P_OrbEn ] 0
    print[ P_Cartesian ] 0
end
*xyz 0 1
 C        1.0597430000     0.0588240000     0.3873530000 
 C        2.3679080000     0.0692750000     0.1454610000 
 C        3.2203670000     1.3066230000     0.0010620000 
 C        4.4166120000     0.8362120000    -0.8263100000 
 C        4.6374100000    -0.5953700000    -0.3377800000 
 C        3.2436410000    -1.1060540000    -0.0634640000 
 C        2.8815910000    -2.3861100000    -0.0463470000 
 H        0.5013100000     0.9808210000     0.5022900000 
 H        0.5014700000    -0.8661940000     0.4771340000 
 H        3.5633570000     1.6273450000     0.9927720000 
 H        2.6778940000     2.1442870000    -0.4403600000 
 H        5.2966980000     1.4709650000    -0.7088190000 
 H        4.1510820000     0.8275140000    -1.8878160000 
 H        5.2078240000    -0.5795360000     0.5994290000 
 H        5.1869310000    -1.2238270000    -1.0405480000 
 H        3.5989660000    -3.1764350000    -0.2358130000 
 H        1.8604070000    -2.6896400000     0.1547480000 
*
