! RI PBE def2-SVP def2-SVP/J NBO PAL2
% maxcore 2000
% output
    # printlevel mini
    print[ P_Basis ] 0
    print[ P_SCFInfo ] 1
    print[ P_SCFIterInfo ] 1
    print[ P_OrbEn ] 0
    print[ P_Cartesian ] 0
end
*xyz 0 1
 C        1.0389770000     0.0934960000     0.0208520000 
 C        2.5249010000     0.0766300000     0.0224810000 
 C        3.3723670000     1.1253080000     0.0257190000 
 C        4.7571580000     0.6425070000     0.0262280000 
 C        4.7538470000    -0.7020790000     0.0232990000 
 C        3.3556980000    -1.1431630000     0.0207530000 
 C        2.9181260000    -2.4047480000     0.0175010000 
 H        0.6642900000     1.1181620000     0.0226210000 
 H        0.6271960000    -0.4136330000     0.8992940000 
 H        0.6291670000    -0.4098750000    -0.8606660000 
 H        3.0852410000     2.1693280000     0.0276690000 
 H        5.6297410000     1.2822270000     0.0286030000 
 H        5.6066460000    -1.3657510000     0.0228160000 
 H        3.6087830000    -3.2406800000     0.0164570000 
 H        1.8591530000    -2.6390200000     0.0157930000 
*
