! RI PBE def2-SVP def2-SVP/J NBO PAL2
% maxcore 2000
% output
    # printlevel mini
    print[ P_Basis ] 0
    print[ P_SCFInfo ] 1
    print[ P_SCFIterInfo ] 1
    print[ P_OrbEn ] 0
    print[ P_Cartesian ] 0
end
*xyz 0 1
 C        1.0726640000     0.1033080000     0.0705890000 
 C        2.5589720000     0.0182040000     0.0728690000 
 C        3.3153450000    -1.0924370000     0.0764730000 
 C        4.7589340000    -0.7190500000     0.0776480000 
 C        4.7229000000     0.7716070000     0.0741850000 
 C        3.4476320000     1.1950680000     0.0714250000 
 C        2.9589260000     2.6013080000     0.0675180000 
 H        0.6213220000    -0.8897070000     0.0722140000 
 H        0.7052480000     0.6414260000    -0.8090040000 
 H        0.7027830000     0.6454190000     0.9466890000 
 H        2.9516660000    -2.1120340000     0.0782950000 
 H        5.2887110000    -1.1201620000    -0.7967310000 
 H        5.2862490000    -1.1161530000     0.9553400000 
 H        5.6040050000     1.4004940000     0.0739840000 
 H        3.7904690000     3.3072320000     0.0670830000 
 H        2.3372840000     2.8100350000     0.9440130000 
 H        2.3397720000     2.8060210000    -0.8116800000 
*
