! RI PBE def2-SVP def2-SVP/J NBO PAL2
% maxcore 2000
% output
    # printlevel mini
    print[ P_Basis ] 0
    print[ P_SCFInfo ] 1
    print[ P_SCFIterInfo ] 1
    print[ P_OrbEn ] 0
    print[ P_Cartesian ] 0
end
*xyz 0 1
 C        1.0852590000    -0.0394320000     0.1406970000 
 C        2.5663990000    -0.0747240000     0.0115160000 
 C        3.3354800000    -1.1607590000    -0.1358950000 
 C        4.7924850000    -0.8405950000    -0.2357930000 
 C        4.8378580000     0.6947020000    -0.1255210000 
 C        3.3972840000     1.1298500000     0.0314220000 
 C        2.9582720000     2.3818600000     0.1641470000 
 H        0.6593000000    -1.0426540000     0.1014300000 
 H        0.6368970000     0.5564420000    -0.6602190000 
 H        0.7860310000     0.4247640000     1.0854460000 
 H        2.9552770000    -2.1758480000    -0.1798490000 
 H        5.2182320000    -1.2012690000    -1.1786030000 
 H        5.3654650000    -1.3303170000     0.5592890000 
 H        5.2843140000     1.1496870000    -1.0125740000 
 H        5.4354720000     1.0205650000     0.7287750000 
 H        3.6390190000     3.2255190000     0.1697320000 
 H        1.9023660000     2.6017200000     0.2715020000 
*
