! RI PBE def2-SVP def2-SVP/J NBO PAL2
% maxcore 2000
% output
    # printlevel mini
    print[ P_Basis ] 0
    print[ P_SCFInfo ] 1
    print[ P_SCFIterInfo ] 1
    print[ P_OrbEn ] 0
    print[ P_Cartesian ] 0
end
*xyz 0 1
 C        0.9127530000     0.0435900000     0.0240300000 
 C        2.4379080000     0.0381310000    -0.0557600000 
 C        3.0091460000     1.1950670000    -0.8167550000 
 C        3.7912960000     0.7353410000    -1.8033110000 
 C        3.7949590000    -0.7237700000    -1.7722500000 
 C        3.0144200000    -1.1582960000    -0.7677350000 
 C        2.7314110000    -2.5607080000    -0.3685770000 
 H        0.5525150000     0.9409520000     0.5317270000 
 H        0.5432280000    -0.8240430000     0.5757650000 
 H        0.4794150000     0.0226160000    -0.9784510000 
 H        2.8384150000     0.0558170000     0.9701950000 
 H        2.7984990000     2.2301010000    -0.5817760000 
 H        4.3412450000     1.3367540000    -2.5163100000 
 H        4.3486550000    -1.3542730000    -2.4579080000 
 H        3.2555680000    -3.2668370000    -1.0145530000 
 H        1.6606650000    -2.7867580000    -0.4226920000 
 H        3.0401120000    -2.7555950000     0.6640690000 
*
