! RI PBE def2-SVP def2-SVP/J NBO PAL2
% maxcore 2000
% output
    # printlevel mini
    print[ P_Basis ] 0
    print[ P_SCFInfo ] 1
    print[ P_SCFIterInfo ] 1
    print[ P_OrbEn ] 0
    print[ P_Cartesian ] 0
end
*xyz 0 1
 C        1.0105030000     0.0701740000     0.2639630000 
 C        2.5127800000    -0.0104920000     0.0210670000 
 C        2.9029700000    -1.2452420000    -0.8224340000 
 C        3.4307890000    -0.6694930000    -2.0980450000 
 C        3.4931350000     0.6639110000    -2.0592580000 
 C        3.0181240000     1.1763960000    -0.7839660000 
 C        3.0176210000     2.4512990000    -0.3934600000 
 H        0.6593260000    -0.7943170000     0.8339180000 
 H        0.4701540000     0.0943680000    -0.6864090000 
 H        0.7490110000     0.9735450000     0.8191090000 
 H        3.0215800000    -0.0364130000     0.9889790000 
 H        2.0458580000    -1.9059710000    -0.9968540000 
 H        3.6629680000    -1.8602610000    -0.3268130000 
 H        3.7330570000    -1.2819490000    -2.9397080000 
 H        3.8546530000     1.3015020000    -2.8573200000 
 H        3.3848930000     3.2383170000    -1.0422250000 
 H        2.6550710000     2.7482370000     0.5843460000 
*
