! RI PBE def2-SVP def2-SVP/J NBO PAL2
% maxcore 2000
% output
    # printlevel mini
    print[ P_Basis ] 0
    print[ P_SCFInfo ] 1
    print[ P_SCFIterInfo ] 1
    print[ P_OrbEn ] 0
    print[ P_Cartesian ] 0
end
*xyz 0 1
 C        0.9737280000    -0.0108320000     0.1316310000 
 C        2.3021540000    -0.0313360000     0.1103050000 
 C        3.0963280000    -1.3040060000     0.0997100000 
 C        4.0706610000    -1.3379440000    -1.0789170000 
 C        4.9485510000    -0.0945340000    -1.1064540000 
 C        4.1086790000     1.1750020000    -1.1267520000 
 C        3.1344430000     1.2154110000     0.0517520000 
 H        0.3935200000    -0.9273350000     0.1611790000 
 H        0.4215180000     0.9232570000     0.1259530000 
 H        2.4296540000    -2.1697460000     0.0799020000 
 H        3.6762790000    -1.3663530000     1.0311770000 
 H        3.4983770000    -1.3980140000    -2.0120790000 
 H        4.6866370000    -2.2407690000    -1.0275780000 
 H        5.6150010000    -0.1211280000    -1.9738430000 
 H        5.5933260000    -0.0873810000    -0.2182290000 
 H        3.5379360000     1.2168010000    -2.0618530000 
 H        4.7517040000     2.0600860000    -1.1094450000 
 H        2.4942430000     2.0995350000    -0.0013650000 
 H        3.7165510000     1.2955880000     0.9805070000 
*
