! RI PBE def2-SVP def2-SVP/J NBO PAL2
% maxcore 2000
% output
    # printlevel mini
    print[ P_Basis ] 0
    print[ P_SCFInfo ] 1
    print[ P_SCFIterInfo ] 1
    print[ P_OrbEn ] 0
    print[ P_Cartesian ] 0
end
*xyz 0 1
 C        0.8107870000     0.0172570000     0.0057460000 
 C        2.1488690000     0.0584370000     0.0074530000 
 C        2.9032010000     1.3733250000    -0.0024360000 
 C        4.3934670000     1.2583410000     0.0015370000 
 C        5.0205910000     0.0819230000     0.0125040000 
 C        4.2699020000    -1.1619290000     0.0213030000 
 C        2.9282680000    -1.1659830000     0.0188840000 
 H        0.2093920000     0.9196130000    -0.0026650000 
 H        0.2822770000    -0.9290770000     0.0127780000 
 H        2.5952510000     1.9779500000     0.8598640000 
 H        2.5987950000     1.9628180000    -0.8764060000 
 H        4.9599550000     2.1840720000    -0.0050270000 
 H        6.1040820000     0.0378800000     0.0150040000 
 H        4.8154820000    -2.0989990000     0.0300240000 
 H        2.3806720000    -2.1031170000     0.0256370000 
*
