! RI PBE def2-SVP def2-SVP/J NBO PAL2
% maxcore 2000
% output
    # printlevel mini
    print[ P_Basis ] 0
    print[ P_SCFInfo ] 1
    print[ P_SCFIterInfo ] 1
    print[ P_OrbEn ] 0
    print[ P_Cartesian ] 0
end
*xyz 0 1
 C        0.9778980000     0.1232540000    -0.3180570000 
 C        2.2664090000     0.1056860000     0.0266330000 
 C        3.1319560000    -1.1150810000     0.2525190000 
 C        4.4889960000    -0.5538180000     0.6184350000 
 C        5.5914560000    -1.2457200000     0.9103830000 
 C        4.3615620000     0.8925890000     0.5910420000 
 C        3.1121310000     1.2633300000     0.2583590000 
 H        0.4165380000    -0.7909230000    -0.4725320000 
 H        0.4487800000     1.0592560000    -0.4552630000 
 H        3.1873690000    -1.7349110000    -0.6463260000 
 H        2.7324070000    -1.7430810000     1.0532380000 
 H        5.6016980000    -2.3295090000     0.9081070000 
 H        6.5177820000    -0.7415930000     1.1607140000 
 H        5.1813250000     1.5648020000     0.8135840000 
 H        2.7591830000     2.2835190000     0.1686460000 
*
