! RI PBE def2-SVP def2-SVP/J NBO PAL2
% maxcore 2000
% output
    # printlevel mini
    print[ P_Basis ] 0
    print[ P_SCFInfo ] 1
    print[ P_SCFIterInfo ] 1
    print[ P_OrbEn ] 0
    print[ P_Cartesian ] 0
end
*xyz 0 1
 C        0.8500430000    -0.0918630000     0.2796210000 
 C        2.1664170000    -0.0607700000     0.0574330000 
 C        2.9043400000     1.2031700000    -0.2883720000 
 C        4.2960710000     1.2212240000     0.3315510000 
 C        5.1030690000     0.0075850000    -0.1089610000 
 C        4.3089430000    -1.2543190000     0.0031690000 
 C        2.9768720000    -1.2702540000     0.1065470000 
 H        0.2471020000     0.8087980000     0.2483850000 
 H        0.3388930000    -1.0238590000     0.4957260000 
 H        2.3228250000     2.0753610000     0.0196590000 
 H        3.0035680000     1.2575740000    -1.3806290000 
 H        4.2012020000     1.2100110000     1.4226240000 
 H        4.8187920000     2.1439390000     0.0657750000 
 H        6.0169950000    -0.0791970000     0.4879100000 
 H        5.4426350000     0.1337970000    -1.1467530000 
 H        4.8548870000    -2.1933590000     0.0127430000 
 H        2.4540660000    -2.2150380000     0.2254830000 
*
