! RI PBE def2-SVP def2-SVP/J NBO PAL2
% maxcore 2000
% output
    # printlevel mini
    print[ P_Basis ] 0
    print[ P_SCFInfo ] 1
    print[ P_SCFIterInfo ] 1
    print[ P_OrbEn ] 0
    print[ P_Cartesian ] 0
end
*xyz 0 1
 C        0.9197410000     0.0705070000    -0.0803010000 
 C        2.4136020000     0.1031860000    -0.0362750000 
 C        3.0971910000     1.2403320000     0.0853880000 
 C        4.5918360000     1.3324350000     0.0939190000 
 C        5.2494630000     0.0457760000    -0.3849860000 
 C        4.5776970000    -1.1627480000     0.2470770000 
 C        3.1073510000    -1.2258790000    -0.1409990000 
 H        0.4918830000     1.0731940000    -0.0312450000 
 H        0.5141460000    -0.5177910000     0.7502140000 
 H        0.5659770000    -0.4072520000    -1.0009540000 
 H        2.5455720000     2.1733740000     0.1801360000 
 H        4.9378570000     1.5758100000     1.1082260000 
 H        4.9094480000     2.1749170000    -0.5304270000 
 H        6.3193110000     0.0588230000    -0.1586390000 
 H        5.1572180000    -0.0230990000    -1.4752660000 
 H        4.6602070000    -1.0882060000     1.3377680000 
 H        5.0848990000    -2.0869340000    -0.0441520000 
 H        2.5809390000    -1.9549330000     0.4866000000 
 H        3.0024410000    -1.6008120000    -1.1689750000 
*
