! RI PBE def2-SVP def2-SVP/J NBO PAL2
% maxcore 2000
% output
    # printlevel mini
    print[ P_Basis ] 0
    print[ P_SCFInfo ] 1
    print[ P_SCFIterInfo ] 1
    print[ P_OrbEn ] 0
    print[ P_Cartesian ] 0
end
*xyz 0 1
 C        0.9897880000    -0.0377710000    -0.0795010000 
 C        2.4759800000     0.0019510000    -0.0778340000 
 C        3.2977130000     1.0725860000    -0.0751440000 
 C        2.9423020000     2.5187120000    -0.0730890000 
 C        4.6853300000     0.5983780000    -0.0744510000 
 C        4.7127050000    -0.7404000000    -0.0766780000 
 C        3.3083190000    -1.2452520000    -0.0790440000 
 H        0.5545590000     0.9623810000    -0.0782710000 
 H        0.6024810000    -0.5682000000     0.7973300000 
 H        0.6043710000    -0.5652180000    -0.9589600000 
 H        1.8635250000     2.6781580000    -0.0739770000 
 H        3.3565670000     3.0260310000    -0.9503230000 
 H        3.3546830000     3.0230710000     0.8067370000 
 H        5.5478980000     1.2547650000    -0.0724160000 
 H        5.5893450000    -1.3735110000    -0.0768020000 
 H        3.0977780000    -1.8751660000     0.7956360000 
 H        3.0996660000    -1.8722050000    -0.9563010000 
*
