! RI PBE def2-SVP def2-SVP/J NBO PAL2
% maxcore 2000
% output
    # printlevel mini
    print[ P_Basis ] 0
    print[ P_SCFInfo ] 1
    print[ P_SCFIterInfo ] 1
    print[ P_OrbEn ] 0
    print[ P_Cartesian ] 0
end
*xyz 0 1
 C        1.0513960000     0.0692480000    -0.1415820000 
 C        2.5346060000     0.0919110000    -0.0076820000 
 C        3.2591590000     1.2178150000    -0.0210100000 
 C        4.7014570000     1.1915650000     0.1791310000 
 C        5.3855910000     0.0484730000     0.0887070000 
 C        4.6709670000    -1.2221450000    -0.2563690000 
 C        3.2353990000    -1.2141010000     0.2542700000 
 H        0.6396280000     1.0732260000    -0.2571630000 
 H        0.5891710000    -0.3921140000     0.7395190000 
 H        0.7408060000    -0.5321950000    -1.0029290000 
 H        2.7686290000     2.1776670000    -0.1528350000 
 H        5.2144850000     2.1259180000     0.3819220000 
 H        6.4644790000     0.0354980000     0.2012900000 
 H        5.2043550000    -2.0913100000     0.1371040000 
 H        4.6724150000    -1.3354880000    -1.3514590000 
 H        3.2264930000    -1.3881400000     1.3415530000 
 H        2.6738850000    -2.0428180000    -0.1871480000 
*
