! RI PBE def2-SVP def2-SVP/J NBO PAL2
% maxcore 2000
% output
    # printlevel mini
    print[ P_Basis ] 0
    print[ P_SCFInfo ] 1
    print[ P_SCFIterInfo ] 1
    print[ P_OrbEn ] 0
    print[ P_Cartesian ] 0
end
*xyz 0 1
 C        0.9955190000     0.1208500000     0.0342560000 
 C        2.4809440000     0.0974400000     0.0387130000 
 C        3.3330210000     1.1368420000     0.0416440000 
 C        4.7083310000     0.6507490000     0.0456030000 
 C        4.7180260000    -0.6932400000     0.0451530000 
 C        5.8882540000    -1.6084510000     0.0483420000 
 C        3.2933330000    -1.1641110000     0.0407070000 
 H        0.6182320000     1.1449750000     0.0334900000 
 H        0.5811860000    -0.3889870000     0.9109470000 
 H        0.5864650000    -0.3883570000    -0.8452760000 
 H        3.0483320000     2.1824170000     0.0411600000 
 H        5.5868090000     1.2852110000     0.0484680000 
 H        6.8252870000    -1.0488620000     0.0513530000 
 H        5.8909760000    -2.2632020000    -0.8300000000 
 H        5.8857030000    -2.2638230000     0.9262230000 
 H        3.0699580000    -1.7889800000     0.9157340000 
 H        3.0752230000    -1.7883520000    -0.8360950000 
*
