! RI PBE def2-SVP def2-SVP/J NBO PAL2
% maxcore 2000
% output
    # printlevel mini
    print[ P_Basis ] 0
    print[ P_SCFInfo ] 1
    print[ P_SCFIterInfo ] 1
    print[ P_OrbEn ] 0
    print[ P_Cartesian ] 0
end
*xyz 0 1
 C        0.9982650000     0.1275030000     0.0890240000 
 C        2.4809410000     0.0971930000     0.0288460000 
 C        3.2715260000    -0.9836220000     0.0431560000 
 C        4.6790590000    -0.6344470000    -0.0303380000 
 C        5.7109540000    -1.4794330000    -0.0357260000 
 C        4.7531210000     0.8776930000    -0.1000330000 
 C        3.2922560000     1.3587700000    -0.0595520000 
 H        0.5745960000    -0.8757530000     0.1502490000 
 H        0.5812930000     0.6243810000    -0.7937850000 
 H        0.6539100000     0.7005500000     0.9568640000 
 H        2.9188170000    -2.0073540000     0.1024490000 
 H        5.5583400000    -2.5512680000     0.0177220000 
 H        6.7345000000    -1.1272500000    -0.0934260000 
 H        5.2588750000     1.1976210000    -1.0137370000 
 H        5.3330620000     1.2748920000     0.7359540000 
 H        3.0172020000     1.9375510000    -0.9488660000 
 H        3.0903640000     2.0125830000     0.7967890000 
*
