! RI PBE def2-SVP def2-SVP/J NBO PAL2
% maxcore 2000
% output
    # printlevel mini
    print[ P_Basis ] 0
    print[ P_SCFInfo ] 1
    print[ P_SCFIterInfo ] 1
    print[ P_OrbEn ] 0
    print[ P_Cartesian ] 0
end
*xyz 0 1
 C        0.8822600000     0.0677150000     0.0661260000 
 C        2.3672760000     0.0239470000     0.0662470000 
 C        3.2322750000     1.0525770000     0.0669880000 
 C        4.6122970000     0.5635350000     0.0668110000 
 C        5.8152150000     1.4518220000     0.0675030000 
 C        4.5806320000    -0.7811250000     0.0659490000 
 C        3.1625140000    -1.2464910000     0.0655130000 
 H        0.5176290000     1.0963370000     0.0667580000 
 H        0.4653930000    -0.4378090000     0.9438100000 
 H        0.4655700000    -0.4366660000    -0.8123000000 
 H        2.9622580000     2.1030660000     0.0676310000 
 H        5.5307840000     2.5054840000     0.0680030000 
 H        6.4396440000     1.2789430000    -0.8126240000 
 H        6.4393070000     1.2780240000     0.9476900000 
 H        5.4352010000    -1.4453790000     0.0656070000 
 H        2.9281820000    -1.8670550000     0.9409430000 
 H        2.9283540000    -1.8659360000    -0.8107560000 
*
