! RI PBE def2-SVP def2-SVP/J NBO PAL2
% maxcore 2000
% output
    # printlevel mini
    print[ P_Basis ] 0
    print[ P_SCFInfo ] 1
    print[ P_SCFIterInfo ] 1
    print[ P_OrbEn ] 0
    print[ P_Cartesian ] 0
end
*xyz 0 1
 C        0.9006290000     0.0123020000     0.1421200000 
 C        2.3878940000     0.0845250000     0.0169650000 
 C        3.0426780000     1.2406500000    -0.0463280000 
 C        4.5255400000     1.3677340000    -0.1715090000 
 C        5.2232540000     0.0497210000    -0.2206000000 
 C        4.5866470000    -1.1120250000    -0.1587920000 
 C        3.1036630000    -1.2321530000    -0.0334130000 
 H        0.4501920000     1.0055360000     0.1725960000 
 H        0.6092950000    -0.5251800000     1.0514160000 
 H        0.4626880000    -0.5379910000    -0.6980980000 
 H        2.4751150000     2.1676120000    -0.0055320000 
 H        4.9211050000     1.9658710000     0.6622100000 
 H        4.7761230000     1.9535690000    -1.0677940000 
 H        6.3057380000     0.0644990000    -0.3115930000 
 H        5.1541340000    -2.0376480000    -0.1997830000 
 H        2.8509950000    -1.8182660000     0.8629480000 
 H        2.7058110000    -1.8310370000    -0.8664050000 
*
