! RI PBE def2-SVP def2-SVP/J NBO PAL2
% maxcore 2000
% output
    # printlevel mini
    print[ P_Basis ] 0
    print[ P_SCFInfo ] 1
    print[ P_SCFIterInfo ] 1
    print[ P_OrbEn ] 0
    print[ P_Cartesian ] 0
end
*xyz 0 1
 C        0.9160930000     0.0330730000     0.0696090000 
 C        2.3915820000    -0.0103870000    -0.1047030000 
 C        3.1684990000    -1.0908140000    -0.1429720000 
 C        4.6170650000    -0.7633070000    -0.3327680000 
 C        4.6242780000     0.7504120000    -0.4104780000 
 C        5.6960080000     1.5120330000    -0.5776840000 
 C        3.2019940000     1.2459080000    -0.2651560000 
 H        0.4931850000    -0.9676070000     0.1707560000 
 H        0.4340090000     0.5243630000    -0.7824850000 
 H        0.6422270000     0.6122940000     0.9580550000 
 H        2.8042090000    -2.1080750000    -0.0479210000 
 H        5.0294740000    -1.2160710000    -1.2427700000 
 H        5.2371930000    -1.1278180000     0.4953420000 
 H        6.6876450000     1.0831250000    -0.6748040000 
 H        5.6230180000     2.5933670000    -0.6238660000 
 H        2.8796450000     1.8259350000    -1.1394350000 
 H        3.0877660000     1.9135680000     0.5985000000 
*
