! RI PBE def2-SVP def2-SVP/J NBO PAL2
% maxcore 2000
% output
    # printlevel mini
    print[ P_Basis ] 0
    print[ P_SCFInfo ] 1
    print[ P_SCFIterInfo ] 1
    print[ P_OrbEn ] 0
    print[ P_Cartesian ] 0
end
*xyz 0 1
 C        0.8967110000    -0.1152240000     0.0834640000 
 C        2.3894330000    -0.0349980000     0.0704120000 
 C        3.0530550000     1.1215420000     0.0561440000 
 C        4.5472990000     1.2347390000     0.0426760000 
 C        5.3194430000    -0.1019920000     0.0471810000 
 C        4.4670450000    -1.3315820000     0.0631060000 
 C        3.1373170000    -1.2959640000     0.0736290000 
 H        0.4422150000     0.8764450000     0.0798890000 
 H        0.5406270000    -0.6524230000     0.9689490000 
 H        0.5259750000    -0.6654690000    -0.7878860000 
 H        2.4982420000     2.0564680000     0.0536790000 
 H        4.8524430000     1.8432220000     0.9018460000 
 H        4.8378620000     1.8290050000    -0.8313830000 
 H        5.9954130000    -0.1434570000     0.9089860000 
 H        5.9823540000    -0.1567920000    -0.8239620000 
 H        4.9847350000    -2.2864030000     0.0660440000 
 H        2.5707420000    -2.2225180000     0.0851160000 
*
