! RI PBE def2-SVP def2-SVP/J NBO PAL2
% maxcore 2000
% output
    # printlevel mini
    print[ P_Basis ] 0
    print[ P_SCFInfo ] 1
    print[ P_SCFIterInfo ] 1
    print[ P_OrbEn ] 0
    print[ P_Cartesian ] 0
end
*xyz 0 1
 C        1.0423670000    -0.0130170000     0.0301510000 
 C        2.5681960000    -0.0145910000     0.0759140000 
 C        3.0426250000    -0.0096440000     1.5212180000 
 C        3.0968190000    -1.2370380000    -0.7162050000 
 C        3.3956690000    -0.6877200000    -2.0773480000 
 C        3.3971910000     0.6402630000    -2.0823920000 
 C        3.0996110000     1.2005890000    -0.7254650000 
 H        0.6354070000    -0.8950510000     0.5330150000 
 H        0.6844860000    -0.0165300000    -1.0031060000 
 H        0.6374320000     0.8737390000     0.5263000000 
 H        2.6769750000    -0.8899010000     2.0580960000 
 H        2.6789970000     0.8755010000     2.0513900000 
 H        4.1345500000    -0.0106760000     1.5785150000 
 H        2.3682170000    -2.0549450000    -0.7338290000 
 H        4.0082060000    -1.6466020000    -0.2607230000 
 H        3.6155410000    -1.3135810000    -2.9349760000 
 H        3.6184900000     1.2590850000    -2.9447480000 
 H        2.3728830000     2.0200050000    -0.7493090000 
 H        4.0119370000     1.6115130000    -0.2730990000 
*
