! RI PBE def2-SVP def2-SVP/J NBO PAL2
% maxcore 2000
% output
    # printlevel mini
    print[ P_Basis ] 0
    print[ P_SCFInfo ] 1
    print[ P_SCFIterInfo ] 1
    print[ P_OrbEn ] 0
    print[ P_Cartesian ] 0
end
*xyz 0 1
 C        1.0006490000    -0.0477600000     0.0498470000 
 C        2.5320160000    -0.0733130000     0.0305660000 
 C        3.0269720000     0.0882170000    -1.4023480000 
 C        3.0829850000    -1.3558660000     0.6974910000 
 C        3.3917230000    -0.9868590000     2.1561530000 
 C        3.5216840000     0.5072130000     2.0989650000 
 C        3.0679140000     0.9967610000     0.9520060000 
 H        0.5921260000    -0.8220720000    -0.6066080000 
 H        0.6196660000     0.9179590000    -0.2943440000 
 H        0.6176170000    -0.2165900000     1.0593300000 
 H        2.6886240000    -0.7438160000    -2.0271880000 
 H        4.1187660000     0.1183150000    -1.4396310000 
 H        2.6476460000     1.0123360000    -1.8482560000 
 H        4.0125730000    -1.6423300000     0.1973790000 
 H        2.3922830000    -2.1972980000     0.6042970000 
 H        4.2938100000    -1.4799840000     2.5298620000 
 H        2.5818860000    -1.2744710000     2.8388580000 
 H        3.9035560000     1.1004170000     2.9224500000 
 H        3.0218060000     2.0507220000     0.6963590000 
*
