! RI PBE def2-SVP def2-SVP/J NBO PAL2
% maxcore 2000
% output
    # printlevel mini
    print[ P_Basis ] 0
    print[ P_SCFInfo ] 1
    print[ P_SCFIterInfo ] 1
    print[ P_OrbEn ] 0
    print[ P_Cartesian ] 0
end
*xyz 0 1
 C        0.8000470000     0.1827180000     0.0916650000 
 C        2.3209120000     0.0505320000     0.0436690000 
 C        3.0188630000     1.2041870000    -0.6081390000 
 C        3.7982160000     0.7538730000    -1.6000440000 
 C        3.6793300000    -0.7060080000    -1.6964760000 
 C        4.4109860000    -1.5336350000    -2.6937240000 
 C        2.8194300000    -1.1169320000    -0.7494710000 
 H        0.5015060000     1.0621190000     0.6671720000 
 H        0.3476800000    -0.6947610000     0.5593510000 
 H        0.3935500000     0.2794700000    -0.9173230000 
 H        2.6906660000    -0.0388040000     1.0779180000 
 H        2.8913910000     2.2337500000    -0.2992880000 
 H        4.4271000000     1.3567780000    -2.2448070000 
 H        4.1698330000    -1.2240470000    -3.7155690000 
 H        4.1631110000    -2.5909960000    -2.5914240000 
 H        5.4939020000    -1.4247890000    -2.5776070000 
 H        2.5149760000    -2.1396380000    -0.5637220000 
*
