! RI PBE def2-SVP def2-SVP/J NBO PAL2
% maxcore 2000
% output
    # printlevel mini
    print[ P_Basis ] 0
    print[ P_SCFInfo ] 1
    print[ P_SCFIterInfo ] 1
    print[ P_OrbEn ] 0
    print[ P_Cartesian ] 0
end
*xyz 0 1
 C        0.9839980000    -0.0587590000    -0.2843210000 
 C        2.4778350000    -0.0531910000     0.0551800000 
 C        2.8586000000     1.1867710000     0.8040400000 
 C        3.4440600000     1.1903860000     1.9949410000 
 C        3.8145560000    -0.0522520000     2.7347200000 
 C        3.4542870000    -1.2953700000     1.9907110000 
 C        2.8688010000    -1.2925200000     0.7998210000 
 H        0.7132240000     0.8253540000    -0.8672570000 
 H        0.3837920000    -0.0627820000     0.6284350000 
 H        0.7205000000    -0.9430820000    -0.8702670000 
 H        3.0167340000    -0.0493390000    -0.9055400000 
 H        2.6177270000     2.1329490000     0.3253120000 
 H        3.6778120000     2.1378330000     2.4726530000 
 H        3.3337340000    -0.0559130000     3.7234620000 
 H        4.8915100000    -0.0481980000     2.9563390000 
 H        3.6958340000    -2.2424830000     2.4651990000 
 H        2.6357150000    -2.2390130000     0.3178710000 
*
