! RI PBE def2-SVP def2-SVP/J NBO PAL2
% maxcore 2000
% output
    # printlevel mini
    print[ P_Basis ] 0
    print[ P_SCFInfo ] 1
    print[ P_SCFIterInfo ] 1
    print[ P_OrbEn ] 0
    print[ P_Cartesian ] 0
end
*xyz 0 1
 C        1.0683830000    -0.0796490000     0.0806030000 
 C        2.5871500000    -0.0658700000    -0.0080900000 
 C        3.1101850000    -1.2983370000    -0.7780800000 
 C        3.3856670000    -0.7643130000    -2.1500810000 
 C        3.3748780000     0.5661120000    -2.1915570000 
 C        3.6461580000     1.4381950000    -3.3650730000 
 C        3.0842530000     1.1385000000    -0.8314400000 
 H        0.7107530000    -0.9541010000     0.6307160000 
 H        0.6263510000    -0.1091540000    -0.9201590000 
 H        0.6923030000     0.8130160000     0.5876700000 
 H        2.9964630000    -0.0392990000     1.0052390000 
 H        2.3817200000    -2.1167580000    -0.7758040000 
 H        4.0258520000    -1.7023210000    -0.3273280000 
 H        3.6020640000    -1.4014720000    -3.0014000000 
 H        3.8603120000     0.8543550000    -4.2617740000 
 H        4.5002400000     2.0973720000    -3.1744080000 
 H        2.7919990000     2.0905390000    -3.5761090000 
 H        2.3420940000     1.9448870000    -0.8676550000 
 H        3.9952540000     1.5811060000    -0.4070610000 
*
