! RI PBE def2-SVP def2-SVP/J NBO PAL2
% maxcore 2000
% output
    # printlevel mini
    print[ P_Basis ] 0
    print[ P_SCFInfo ] 1
    print[ P_SCFIterInfo ] 1
    print[ P_OrbEn ] 0
    print[ P_Cartesian ] 0
end
*xyz 0 1
 C        0.9002220000     0.0490650000    -0.0186220000 
 C        2.4245450000     0.0044230000     0.0588660000 
 C        2.9669040000    -1.2730570000     0.7337150000 
 C        3.3358530000    -0.8679520000     2.1670670000 
 C        3.4506350000     0.6317210000     2.0990510000 
 C        3.9950080000     1.4364140000     3.2376310000 
 C        2.9726470000     1.0889140000     0.9438130000 
 H        0.5158330000    -0.7430900000    -0.6672530000 
 H        0.5512630000     1.0059520000    -0.4160650000 
 H        0.4589060000    -0.0785160000     0.9740240000 
 H        2.8153830000     0.0921250000    -0.9617680000 
 H        3.8663630000    -1.6064730000     0.2105310000 
 H        2.2491820000    -2.0958110000     0.6954540000 
 H        4.2649450000    -1.3369320000     2.5078570000 
 H        2.5682830000    -1.1541480000     2.8986100000 
 H        4.3029650000     0.7955030000     4.0658950000 
 H        3.2538820000     2.1412190000     3.6237730000 
 H        4.8676270000     2.0199220000     2.9323220000 
 H        2.9132640000     2.1396090000     0.6752990000 
*
