! RI PBE def2-SVP def2-SVP/J NBO PAL2
% maxcore 2000
% output
    # printlevel mini
    print[ P_Basis ] 0
    print[ P_SCFInfo ] 1
    print[ P_SCFIterInfo ] 1
    print[ P_OrbEn ] 0
    print[ P_Cartesian ] 0
end
*xyz 0 1
 C        2.4774650000    -0.8089300000    -0.5826810000 
 C        2.1177710000     0.1116600000     0.3021520000 
 C        3.0243800000     1.0440700000     1.0003720000 
 C        4.4081510000     1.3254010000     0.5329270000 
 C        3.3496000000     2.3859740000     0.3569490000 
 C        3.3724910000     3.5737620000     1.1518000000 
 C        3.3891320000     4.5697090000     1.8247610000 
 H        1.7415270000    -1.4417640000    -1.0641280000 
 H        3.5153800000    -0.9699490000    -0.8539470000 
 H        1.0640710000     0.2187610000     0.5521510000 
 H        2.8655600000     1.1152440000     2.0718530000 
 H        4.7603220000     0.8408510000    -0.3685500000 
 H        5.1678850000     1.5089490000     1.2810070000 
 H        2.9760120000     2.5117360000    -0.6538220000 
 H        3.4041640000     5.4527260000     2.4181550000 
*
