! RI PBE def2-SVP def2-SVP/J NBO PAL2
% maxcore 2000
% output
    # printlevel mini
    print[ P_Basis ] 0
    print[ P_SCFInfo ] 1
    print[ P_SCFIterInfo ] 1
    print[ P_OrbEn ] 0
    print[ P_Cartesian ] 0
end
*xyz 0 1
 C        1.2571580000    -0.7268220000    -0.5912190000 
 C        2.1219360000     0.1140590000    -0.0401810000 
 C        2.9735870000     1.0886610000    -0.7753520000 
 C        2.7658110000     2.5468370000    -0.3533660000 
 C        3.9885620000     3.2867780000    -0.9062210000 
 C        5.1042490000     2.2229780000    -1.0217970000 
 C        4.4771660000     0.9095560000    -0.5406930000 
 H        0.6679240000    -1.4114020000     0.0078970000 
 H        1.1077170000    -0.7598930000    -1.6663340000 
 H        2.2409740000     0.1142780000     1.0439080000 
 H        2.7706490000     0.9999530000    -1.8504170000 
 H        2.7515470000     2.5964410000     0.7414470000 
 H        1.8168100000     2.9561440000    -0.7057180000 
 H        4.2775850000     4.1242350000    -0.2681440000 
 H        3.7628520000     3.7080200000    -1.8889500000 
 H        5.9892740000     2.4851460000    -0.4386830000 
 H        5.4327310000     2.1284280000    -2.0596710000 
 H        4.6505500000     0.7739920000     0.5329550000 
 H        4.8796260000     0.0283020000    -1.0443520000 
*
