! RI PBE def2-SVP def2-SVP/J NBO PAL2
% maxcore 2000
% output
    # printlevel mini
    print[ P_Basis ] 0
    print[ P_SCFInfo ] 1
    print[ P_SCFIterInfo ] 1
    print[ P_OrbEn ] 0
    print[ P_Cartesian ] 0
end
*xyz 0 1
 C        1.3688350000     0.8529120000     0.6197940000 
 C        2.0178960000    -0.0152960000    -0.1569800000 
 C        2.8072620000     0.3356260000    -1.3183260000 
 C        3.5091230000    -0.5261950000    -2.0651040000 
 C        4.2749430000     0.1504540000    -3.1568290000 
 C        3.6576060000     1.5583350000    -3.1879840000 
 C        2.9991350000     1.7459550000    -1.8125000000 
 H        0.7993160000     0.5226720000     1.4799570000 
 H        1.3881800000     1.9191630000     0.4230550000 
 H        1.9715650000    -1.0753970000     0.0826030000 
 H        3.5604440000    -1.5933150000    -1.8759920000 
 H        4.1985940000    -0.3654860000    -4.1186560000 
 H        5.3450500000     0.1787900000    -2.9101300000 
 H        2.8883390000     1.5949290000    -3.9635230000 
 H        4.3861410000     2.3369940000    -3.4196490000 
 H        2.0595560000     2.3023040000    -1.8725060000 
 H        3.6451130000     2.2988350000    -1.1189210000 
*
