! RI PBE def2-SVP def2-SVP/J NBO PAL2
% maxcore 2000
% output
    # printlevel mini
    print[ P_Basis ] 0
    print[ P_SCFInfo ] 1
    print[ P_SCFIterInfo ] 1
    print[ P_OrbEn ] 0
    print[ P_Cartesian ] 0
end
*xyz 0 1
 C        1.0004580000    -0.6427410000     0.3491760000 
 C        2.0517120000     0.1259630000     0.1045000000 
 C        2.8286380000     0.1791850000    -1.1780050000 
 C        2.7826810000     1.5249120000    -1.8489420000 
 C        2.4351040000     1.3673660000    -3.1334740000 
 C        2.2183530000    -0.0519750000    -3.4008670000 
 C        2.4237010000    -0.7520730000    -2.2758070000 
 H        0.4951460000    -0.6057990000     1.3073310000 
 H        0.6051560000    -1.3263990000    -0.3933650000 
 H        2.4066200000     0.7993260000     0.8821170000 
 H        3.8863480000    -0.0281670000    -0.9340830000 
 H        3.0027370000     2.4536540000    -1.3403350000 
 H        2.3291630000     2.1557400000    -3.8676690000 
 H        1.9430990000    -0.4604460000    -4.3649360000 
 H        2.3502950000    -1.8244470000    -2.1577120000 
*
