! RI PBE def2-SVP def2-SVP/J NBO PAL2
% maxcore 2000
% output
    # printlevel mini
    print[ P_Basis ] 0
    print[ P_SCFInfo ] 1
    print[ P_SCFIterInfo ] 1
    print[ P_OrbEn ] 0
    print[ P_Cartesian ] 0
end
*xyz 0 1
 C        1.1081550000     0.6400540000     0.1351850000 
 C        2.1310310000    -0.1455480000    -0.1713940000 
 C        2.9883430000    -0.8699700000     0.8147130000 
 C        2.9654300000    -2.3962600000     0.5458870000 
 C        4.2471410000    -2.6477550000    -0.1890120000 
 C        5.0655430000    -1.6037920000    -0.1336010000 
 C        4.4762540000    -0.4690410000     0.6481830000 
 H        0.5241240000     1.1385140000    -0.6298910000 
 H        0.8176280000     0.8130280000     1.1672680000 
 H        2.3937010000    -0.2958710000    -1.2186970000 
 H        2.6292510000    -0.6418730000     1.8209160000 
 H        2.0787940000    -2.6943800000    -0.0223250000 
 H        2.9364470000    -2.9664590000     1.4826590000 
 H        4.4744840000    -3.5906530000    -0.6732580000 
 H        6.0590740000    -1.5693320000    -0.5659710000 
 H        4.5816470000     0.4982810000     0.1471400000 
 H        4.9738430000    -0.3675410000     1.6206080000 
*
