! RI PBE def2-SVP def2-SVP/J NBO PAL2
% maxcore 2000
% output
    # printlevel mini
    print[ P_Basis ] 0
    print[ P_SCFInfo ] 1
    print[ P_SCFIterInfo ] 1
    print[ P_OrbEn ] 0
    print[ P_Cartesian ] 0
end
*xyz 0 1
 C        0.7630380000     0.3336780000     0.4178110000 
 C        1.9961130000     0.0299780000     0.0367720000 
 C        3.1614810000     0.9768880000    -0.0458140000 
 C        4.2051140000     0.7307800000     1.0741660000 
 C        3.9347280000     1.8121240000     2.1314350000 
 C        3.2052520000     2.8667810000     1.3525440000 
 C        2.7948790000     2.4186080000     0.1721840000 
 H       -0.0130510000    -0.4216180000     0.4628360000 
 H        0.4894340000     1.3443810000     0.7020640000 
 H        2.2240250000    -1.0004400000    -0.2326610000 
 H        3.6290370000     0.8295000000    -1.0273160000 
 H        5.2080340000     0.8711080000     0.6639670000 
 H        4.1522140000    -0.2826730000     1.4761160000 
 H        4.8566460000     2.1818400000     2.5891420000 
 H        3.3080520000     1.4418180000     2.9520080000 
 H        3.0159150000     3.8623410000     1.7383530000 
 H        2.2171790000     2.9889960000    -0.5461160000 
*
