! RI PBE def2-SVP def2-SVP/J NBO PAL2
% maxcore 2000
% output
    # printlevel mini
    print[ P_Basis ] 0
    print[ P_SCFInfo ] 1
    print[ P_SCFIterInfo ] 1
    print[ P_OrbEn ] 0
    print[ P_Cartesian ] 0
end
*xyz 0 1
 C        0.9936690000    -0.0843170000    -0.0836060000 
 C        2.1980520000    -0.0425840000    -0.0827330000 
 C        3.6061600000    -0.0313740000    -0.0818080000 
 C        4.4266430000     1.0456500000    -0.0784910000 
 C        5.8073840000     0.6005450000    -0.0787680000 
 C        5.8428450000    -0.7430330000    -0.0822320000 
 C        4.4510980000    -1.2730200000    -0.0844930000 
 H       -0.0699720000    -0.1108680000    -0.0843490000 
 H        4.1013730000     2.0773070000    -0.0760210000 
 H        6.6637740000     1.2619820000    -0.0765070000 
 H        6.7262880000    -1.3665750000    -0.0832890000 
 H        4.2422850000    -1.9012860000     0.7901210000 
 H        4.2434010000    -1.8967370000    -0.9626230000 
*
