! RI PBE def2-SVP def2-SVP/J NBO PAL2
% maxcore 2000
% output
    # printlevel mini
    print[ P_Basis ] 0
    print[ P_SCFInfo ] 1
    print[ P_SCFIterInfo ] 1
    print[ P_OrbEn ] 0
    print[ P_Cartesian ] 0
end
*xyz 0 1
 C        0.9674130000     0.0933970000     0.1395740000 
 C        2.1671940000     0.0940420000     0.0789580000 
 C        3.6194740000     0.0950130000    -0.0029470000 
 C        4.1466940000    -1.1389390000    -0.7861240000 
 C        4.5517020000    -0.5682020000    -2.1102280000 
 C        4.5509690000     0.7583920000    -2.1104720000 
 C        4.1453380000     1.3291820000    -0.7865790000 
 H       -0.0952090000     0.0927520000     0.1952360000 
 H        4.0096090000     0.0954330000     1.0183310000 
 H        3.3835520000    -1.9163200000    -0.8693420000 
 H        5.0049860000    -1.5912400000    -0.2756120000 
 H        4.8367380000    -1.1895570000    -2.9512130000 
 H        4.8353240000     1.3797420000    -2.9516880000 
 H        3.3814300000     2.1057870000    -0.8700550000 
 H        5.0031760000     1.7825290000    -0.2762280000 
*
