! RI PBE def2-SVP def2-SVP/J NBO PAL2
% maxcore 2000
% output
    # printlevel mini
    print[ P_Basis ] 0
    print[ P_SCFInfo ] 1
    print[ P_SCFIterInfo ] 1
    print[ P_OrbEn ] 0
    print[ P_Cartesian ] 0
end
*xyz 0 1
 C        0.8317910000    -0.1050540000    -0.0722080000 
 C        2.3203640000    -0.0645150000     0.0178880000 
 C        3.0299860000     0.5589220000     0.9720850000 
 C        4.4906500000     0.5962510000     1.0571160000 
 C        4.8267330000     1.3146040000     2.1470030000 
 C        3.6027130000     1.7678720000     2.8066350000 
 C        2.5334930000     1.3222160000     2.1136620000 
 H        0.4983240000    -0.6741120000    -0.9396430000 
 H        0.4125740000     0.9021720000    -0.1496870000 
 H        0.3939330000    -0.5636630000     0.8189930000 
 H        2.8786420000    -0.5852620000    -0.7565900000 
 H        5.1564390000     0.1195630000     0.3512700000 
 H        5.8292450000     1.5299190000     2.4913110000 
 H        3.5748420000     2.3659340000     3.7080220000 
 H        1.4922900000     1.4908520000     2.3476510000 
*
