! RI PBE def2-SVP def2-SVP/J NBO PAL2
% maxcore 2000
% output
    # printlevel mini
    print[ P_Basis ] 0
    print[ P_SCFInfo ] 1
    print[ P_SCFIterInfo ] 1
    print[ P_OrbEn ] 0
    print[ P_Cartesian ] 0
end
*xyz 0 1
 C        3.6884440000     0.4731380000     0.6231030000 
 C        2.4831890000    -0.2366700000     0.0122510000 
 C        2.8330870000    -1.1102450000    -1.1453770000 
 C        2.6843200000    -2.4313000000    -1.2264320000 
 C        3.1903900000    -2.9912270000    -2.5223230000 
 C        3.3577320000    -1.7344460000    -3.3917380000 
 C        3.4764560000    -0.5702120000    -2.3979780000 
 H        3.3859720000     1.1012850000     1.4640460000 
 H        4.1865890000     1.1151880000    -0.1072040000 
 H        4.4228090000    -0.2494380000     0.9873730000 
 H        1.7589680000     0.5197880000    -0.3169360000 
 H        1.9809280000    -0.8361490000     0.7770480000 
 H        2.2802940000    -3.0503120000    -0.4318870000 
 H        2.5107550000    -3.7220350000    -2.9705840000 
 H        4.1453640000    -3.5120960000    -2.3711340000 
 H        2.4582960000    -1.5973600000    -3.9978190000 
 H        4.2038080000    -1.7987370000    -4.0783860000 
 H        2.9933050000     0.3441540000    -2.7582860000 
 H        4.5244040000    -0.3075350000    -2.2031460000 
*
