! RI PBE def2-SVP def2-SVP/J NBO PAL2
% maxcore 2000
% output
    # printlevel mini
    print[ P_Basis ] 0
    print[ P_SCFInfo ] 1
    print[ P_SCFIterInfo ] 1
    print[ P_OrbEn ] 0
    print[ P_Cartesian ] 0
end
*xyz 0 1
 C        0.9963460000     0.4440150000     0.3859360000 
 C        2.4282430000     0.1161260000    -0.0014210000 
 C        3.0473780000    -1.0151120000     0.8271980000 
 C        4.4874960000    -1.2793200000     0.5136580000 
 C        4.6541520000    -2.5745040000     0.2087260000 
 C        3.3628630000    -3.2520030000     0.2905230000 
 C        2.4207690000    -2.3638860000     0.6417850000 
 H        0.6110730000     1.2747100000    -0.2097700000 
 H        0.9270740000     0.7311800000     1.4390860000 
 H        0.3309550000    -0.4080250000     0.2292890000 
 H        3.0507450000     1.0090450000     0.1169580000 
 H        2.4795020000    -0.1605460000    -1.0591390000 
 H        2.9646190000    -0.7358310000     1.8910390000 
 H        5.2532030000    -0.5148450000     0.5356010000 
 H        5.5870340000    -3.0555190000    -0.0566180000 
 H        3.2069650000    -4.3058150000     0.0968900000 
 H        1.3691740000    -2.5689710000     0.7886500000 
*
