! RI PBE def2-SVP def2-SVP/J NBO PAL2
% maxcore 2000
% output
    # printlevel mini
    print[ P_Basis ] 0
    print[ P_SCFInfo ] 1
    print[ P_SCFIterInfo ] 1
    print[ P_OrbEn ] 0
    print[ P_Cartesian ] 0
end
*xyz 0 1
 C        1.0389030000    -0.0056990000    -0.0132040000 
 C        2.5545100000     0.1058950000     0.0026330000 
 C        3.1165780000     0.8023880000     1.2399030000 
 C        4.6602600000     0.7268090000     1.2727400000 
 C        5.1010110000     2.1014720000     0.8716100000 
 C        4.0906720000     2.9618210000     0.8591640000 
 C        2.7958330000     2.3154070000     1.2490090000 
 H        0.6892910000    -0.5119590000    -0.9159970000 
 H        0.5545940000     0.9734780000     0.0192920000 
 H        0.6808870000    -0.5776850000     0.8477830000 
 H        2.9028090000     0.6389760000    -0.8906870000 
 H        2.9844090000    -0.9002030000    -0.0561050000 
 H        2.6915180000     0.3159230000     2.1231850000 
 H        5.0417570000    -0.0504650000     0.6014310000 
 H        5.0375060000     0.4779520000     2.2725200000 
 H        6.1325490000     2.3503400000     0.6490660000 
 H        4.1753880000     4.0167490000     0.6233510000 
 H        1.9814280000     2.5678580000     0.5620440000 
 H        2.4741080000     2.6623110000     2.2386510000 
*
