! RI PBE def2-SVP def2-SVP/J NBO PAL2
% maxcore 2000
% output
    # printlevel mini
    print[ P_Basis ] 0
    print[ P_SCFInfo ] 1
    print[ P_SCFIterInfo ] 1
    print[ P_OrbEn ] 0
    print[ P_Cartesian ] 0
end
*xyz 0 1
 C        2.8938150000     1.4706740000     0.0475290000 
 C        2.3982270000     0.0385940000    -0.0603690000 
 C        2.9765670000    -0.7334190000    -1.2503820000 
 C        2.4737950000    -2.1907730000    -1.3247560000 
 C        3.6093090000    -3.0659730000    -0.7666530000 
 C        4.8070230000    -2.1698330000    -0.8759740000 
 C        4.4683480000    -0.9160690000    -1.1538240000 
 H        2.4171680000     1.9929450000     0.8802780000 
 H        2.6741200000     2.0330060000    -0.8649840000 
 H        3.9735620000     1.5114390000     0.2099710000 
 H        1.3059460000     0.0375130000    -0.1489810000 
 H        2.6353160000    -0.5061290000     0.8610850000 
 H        2.7077660000    -0.1842930000    -2.1616370000 
 H        2.2929050000    -2.4596720000    -2.3681930000 
 H        1.5316500000    -2.3272780000    -0.7888410000 
 H        3.7276070000    -3.9988200000    -1.3257110000 
 H        3.4391610000    -3.3561550000     0.2777130000 
 H        5.8214420000    -2.5169180000    -0.7131010000 
 H        5.1709630000    -0.0969710000    -1.2565610000 
*
