! RI PBE def2-SVP def2-SVP/J NBO PAL2
% maxcore 2000
% output
    # printlevel mini
    print[ P_Basis ] 0
    print[ P_SCFInfo ] 1
    print[ P_SCFIterInfo ] 1
    print[ P_OrbEn ] 0
    print[ P_Cartesian ] 0
end
*xyz 0 1
 C        0.9252910000     0.0925290000     0.0371910000 
 C        2.3763040000     0.0771720000     0.0276250000 
 C        3.5802220000     0.0644710000     0.0218000000 
 C        5.0124950000     0.0521000000     0.0127430000 
 C        5.7615160000    -0.6692950000    -1.0844280000 
 C        5.7812940000     0.8209920000    -1.0358110000 
 C        7.0310730000     1.5576570000    -0.6518190000 
 H        0.5296830000    -0.6026610000     0.7823480000 
 H        0.5243620000    -0.2013320000    -0.9364160000 
 H        0.5393350000     1.0884930000     0.2703090000 
 H        5.4754390000     0.0203950000     0.9947410000 
 H        5.1661990000    -1.1559880000    -1.8458970000 
 H        6.6625710000    -1.1994080000    -0.7981360000 
 H        5.1549860000     1.3186480000    -1.7686960000 
 H        7.5942010000     1.0045200000     0.1048750000 
 H        6.8019630000     2.5449550000    -0.2422500000 
 H        7.6869660000     1.6960650000    -1.5158880000 
*
