! RI PBE def2-SVP def2-SVP/J NBO PAL2
% maxcore 2000
% output
    # printlevel mini
    print[ P_Basis ] 0
    print[ P_SCFInfo ] 1
    print[ P_SCFIterInfo ] 1
    print[ P_OrbEn ] 0
    print[ P_Cartesian ] 0
end
*xyz 0 1
 C        3.4856170000     2.1861600000    -0.4579200000 
 C        3.3418880000     0.7457650000    -0.0745900000 
 C        3.0194760000     0.3719790000     1.1600160000 
 C        3.5815340000    -0.2291640000    -1.1798270000 
 C        4.9842320000    -0.2911850000    -1.8394890000 
 C        4.7718050000    -1.8046980000    -2.0203580000 
 C        3.6928370000    -1.7428390000    -0.9233510000 
 H        3.3038580000     2.8491520000     0.3888200000 
 H        2.7838630000     2.4475280000    -1.2571890000 
 H        4.4893870000     2.3892280000    -0.8451360000 
 H        2.8469850000     1.1030540000     1.9424360000 
 H        2.9106960000    -0.6717800000     1.4307310000 
 H        2.8416270000    -0.0497480000    -1.9711040000 
 H        5.7639220000    -0.0839600000    -1.1017870000 
 H        5.1649120000     0.3163080000    -2.7277240000 
 H        5.6269370000    -2.4617480000    -1.8574630000 
 H        4.3379340000    -2.0316660000    -2.9967130000 
 H        4.1249250000    -1.9407050000     0.0604080000 
 H        2.7949670000    -2.3509810000    -1.0430570000 
*
