! RI PBE def2-SVP def2-SVP/J NBO PAL2
% maxcore 2000
% output
    # printlevel mini
    print[ P_Basis ] 0
    print[ P_SCFInfo ] 1
    print[ P_SCFIterInfo ] 1
    print[ P_OrbEn ] 0
    print[ P_Cartesian ] 0
end
*xyz 0 1
 C        0.9394080000    -0.0982640000    -0.0394220000 
 C        2.3900470000    -0.1007000000    -0.0017740000 
 C        3.5936420000    -0.1027280000     0.0249070000 
 C        5.0382230000    -0.1048740000     0.0847480000 
 C        5.7715950000     0.9763540000     0.9194170000 
 C        6.8031360000    -0.0941920000     1.3172880000 
 C        5.7673520000    -1.1695130000     0.9440830000 
 H        0.5715780000    -0.1739350000    -1.0659790000 
 H        0.5363640000     0.8212540000     0.3930240000 
 H        0.5297150000    -0.9397620000     0.5253760000 
 H        5.4503670000    -0.1173540000    -0.9297660000 
 H        5.1580770000     1.2781640000     1.7701300000 
 H        6.1163980000     1.8675570000     0.3936190000 
 H        7.1785680000    -0.0831710000     2.3408470000 
 H        7.6548270000    -0.1037430000     0.6332860000 
 H        5.1527100000    -1.4492860000     1.8014930000 
 H        6.1085930000    -2.0739160000     0.4389040000 
*
