! RI PBE def2-SVP def2-SVP/J NBO PAL2
% maxcore 2000
% output
    # printlevel mini
    print[ P_Basis ] 0
    print[ P_SCFInfo ] 1
    print[ P_SCFIterInfo ] 1
    print[ P_OrbEn ] 0
    print[ P_Cartesian ] 0
end
*xyz 0 1
 C        1.4653950000     0.2916100000     0.7927800000 
 C        2.4388710000    -0.0309940000    -0.0474430000 
 C        3.1606580000     0.9219130000    -0.9399840000 
 C        4.6625300000     0.9745050000    -0.6612290000 
 C        5.4006520000     1.8875700000    -1.6007130000 
 C        6.8557010000     1.6731710000    -1.8763600000 
 C        5.8398490000     1.3856540000    -2.9423460000 
 H        0.9854090000    -0.4508740000     1.4198910000 
 H        1.1102330000     1.3141460000     0.8808930000 
 H        2.7637640000    -1.0698350000    -0.0994440000 
 H        2.7293240000     1.9230230000    -0.8356490000 
 H        3.0145620000     0.6240010000    -1.9860100000 
 H        5.0826550000    -0.0356330000    -0.7405710000 
 H        4.8249590000     1.2924380000     0.3748070000 
 H        5.0750860000     2.9238750000    -1.5711100000 
 H        7.3364290000     0.8280480000    -1.3973420000 
 H        7.4934210000     2.5400330000    -1.9968290000 
 H        5.6387320000     0.3465640000    -3.1780550000 
 H        5.7848690000     2.0541740000    -3.7924650000 
*
