! RI PBE def2-SVP def2-SVP/J NBO PAL2
% maxcore 2000
% output
    # printlevel mini
    print[ P_Basis ] 0
    print[ P_SCFInfo ] 1
    print[ P_SCFIterInfo ] 1
    print[ P_OrbEn ] 0
    print[ P_Cartesian ] 0
end
*xyz 0 1
 C        2.4499010000    -0.9156470000    -0.7292820000 
 C        2.0045520000     0.2202500000    -0.1859580000 
 C        0.6087080000     0.4214140000     0.0363310000 
 C       -0.5578850000     0.6265190000     0.2469860000 
 C        2.8805660000     1.3503180000     0.2278040000 
 C        4.2685820000     1.5176010000    -0.2977740000 
 C        3.1890030000     2.4546640000    -0.7452450000 
 H        1.7644400000    -1.6974300000    -1.0303830000 
 H        3.5088070000    -1.0860780000    -0.8778720000 
 H       -1.5928490000     0.7968940000     0.4268760000 
 H        2.7092930000     1.6771120000     1.2487100000 
 H        4.6350160000     0.8010720000    -1.0215070000 
 H        5.0227060000     1.8865470000     0.3858510000 
 H        2.8163200000     2.3373950000    -1.7552800000 
 H        3.1923200000     3.4722590000    -0.3756670000 
*
