! RI PBE def2-SVP def2-SVP/J NBO PAL2
% maxcore 2000
% output
    # printlevel mini
    print[ P_Basis ] 0
    print[ P_SCFInfo ] 1
    print[ P_SCFIterInfo ] 1
    print[ P_OrbEn ] 0
    print[ P_Cartesian ] 0
end
*xyz 0 1
 C        2.3172360000     1.2314300000    -0.6073190000 
 C        3.0932190000     0.1659940000    -0.4065540000 
 C        3.4688720000    -0.3403920000     0.8958930000 
 C        4.2474970000    -1.4106720000     1.0790660000 
 C        4.6917840000    -1.9619680000     2.3712350000 
 C        5.9489860000    -1.4418540000     3.0268830000 
 C        4.6116740000    -1.1893240000     3.6487810000 
 H        2.0625810000     1.5683830000    -1.6045640000 
 H        1.9125010000     1.7993270000     0.2244130000 
 H        3.4814760000    -0.3776620000    -1.2657490000 
 H        3.0774610000     0.1947880000     1.7583580000 
 H        4.6080100000    -1.9393530000     0.1970030000 
 H        4.5583510000    -3.0367050000     2.4614890000 
 H        6.4422940000    -0.6061210000     2.5462360000 
 H        6.6136200000    -2.1578740000     3.4943360000 
 H        4.2276600000    -0.1778780000     3.6117640000 
 H        4.3539760000    -1.7307180000     4.5503190000 
*
