! RI PBE def2-SVP def2-SVP/J NBO PAL2
% maxcore 2000
% output
    # printlevel mini
    print[ P_Basis ] 0
    print[ P_SCFInfo ] 1
    print[ P_SCFIterInfo ] 1
    print[ P_OrbEn ] 0
    print[ P_Cartesian ] 0
end
*xyz 0 1
 C        1.0182600000     0.0254340000     0.1714790000 
 C        2.3243480000     0.1569070000    -0.0650870000 
 C        3.0249320000    -0.4603970000    -1.1287640000 
 C        3.6579230000    -0.9690560000    -2.0229380000 
 C        4.3949330000    -1.5766950000    -3.0849500000 
 C        4.0200590000    -2.9587480000    -3.5678790000 
 C        3.7442840000    -1.7799310000    -4.4337460000 
 H        0.5543220000     0.5317180000     1.0086760000 
 H        0.3861450000    -0.5865090000    -0.4608170000 
 H        2.9227860000     0.7812520000     0.5948330000 
 H        5.4535590000    -1.3401130000    -3.0999770000 
 H        3.1835280000    -3.4354590000    -3.0745550000 
 H        4.8326570000    -3.6214390000    -3.8373650000 
 H        2.7189180000    -1.4495490000    -4.5331330000 
 H        4.3646470000    -1.6211030000    -5.3066760000 
*
