! RI PBE def2-SVP def2-SVP/J NBO PAL2
% maxcore 2000
% output
    # printlevel mini
    print[ P_Basis ] 0
    print[ P_SCFInfo ] 1
    print[ P_SCFIterInfo ] 1
    print[ P_OrbEn ] 0
    print[ P_Cartesian ] 0
end
*xyz 0 1
 C        0.8959840000    -0.1987050000    -0.0280790000 
 C        2.0808830000    -0.0047860000    -0.0505360000 
 C        3.5185380000     0.2010330000    -0.0866980000 
 C        4.2897820000    -1.0289100000    -0.5734170000 
 C        5.7742040000    -0.7965970000    -0.5945730000 
 C        6.5766940000    -0.9761660000     0.6588510000 
 C        6.7166220000    -1.9520180000    -0.4711780000 
 H       -0.1548370000    -0.3646720000    -0.0063500000 
 H        3.8694720000     0.4787920000     0.9131170000 
 H        3.7414100000     1.0543390000    -0.7371230000 
 H        3.9335210000    -1.3025930000    -1.5715930000 
 H        4.0603130000    -1.8763180000     0.0805760000 
 H        6.0977190000     0.0079160000    -1.2495500000 
 H        6.0504750000    -1.3078050000     1.5468920000 
 H        7.3963390000    -0.2958880000     0.8535600000 
 H        6.2854940000    -2.9380030000    -0.3426970000 
 H        7.6308870000    -1.9366270000    -1.0510910000 
*
