! RI PBE def2-SVP def2-SVP/J NBO PAL2
% maxcore 2000
% output
    # printlevel mini
    print[ P_Basis ] 0
    print[ P_SCFInfo ] 1
    print[ P_SCFIterInfo ] 1
    print[ P_OrbEn ] 0
    print[ P_Cartesian ] 0
end
*xyz 0 1
 C        0.9335960000     0.0966380000    -0.0112280000 
 C        2.1399510000     0.0983760000    -0.0197270000 
 C        3.5019480000     0.1003860000    -0.0299980000 
 C        4.7118840000     0.1016770000    -0.0392770000 
 C        6.1366560000     0.1033310000    -0.0540130000 
 C        6.8782410000    -0.6505670000    -1.1345390000 
 C        6.8761880000     0.8368580000    -1.1499190000 
 H       -0.1303190000     0.0951610000    -0.0027940000 
 H        6.6018920000     0.1142250000     0.9261840000 
 H        6.2750360000    -1.1687190000    -1.8680940000 
 H        7.7821270000    -1.1660640000    -0.8360720000 
 H        6.2713760000     1.3379990000    -1.8938810000 
 H        7.7786230000     1.3608880000    -0.8621430000 
*
