! RI PBE def2-SVP def2-SVP/J NBO PAL2
% maxcore 2000
% output
    # printlevel mini
    print[ P_Basis ] 0
    print[ P_SCFInfo ] 1
    print[ P_SCFIterInfo ] 1
    print[ P_OrbEn ] 0
    print[ P_Cartesian ] 0
end
*xyz 0 1
 C        0.6685610000     0.2425820000     0.6192510000 
 C        2.1074560000     0.1768300000     0.2346890000 
 C        3.0405890000     1.1284390000     0.3364260000 
 C        2.7810690000     2.4934510000     0.8952280000 
 C        4.4234640000     0.8230440000    -0.1079290000 
 C        5.2460670000     1.7924860000    -0.9170970000 
 C        5.6341000000     1.4868770000     0.4918210000 
 H        0.0250670000     0.0206020000    -0.2387260000 
 H        0.3716660000     1.2135950000     1.0152300000 
 H        0.4359140000    -0.5084590000     1.3819560000 
 H        2.4260090000    -0.7797010000    -0.1770060000 
 H        1.7178180000     2.7018640000     0.9989900000 
 H        3.2071670000     3.2744300000     0.2592010000 
 H        3.2381460000     2.6050350000     1.8837090000 
 H        4.5630480000    -0.2176250000    -0.3813110000 
 H        4.8270990000     2.7685030000    -1.1272850000 
 H        5.8456880000     1.3840990000    -1.7209890000 
 H        5.4736920000     2.2587630000     1.2338790000 
 H        6.5089810000     0.8737060000     0.6686650000 
*
