! RI PBE def2-SVP def2-SVP/J NBO PAL2
% maxcore 2000
% output
    # printlevel mini
    print[ P_Basis ] 0
    print[ P_SCFInfo ] 1
    print[ P_SCFIterInfo ] 1
    print[ P_OrbEn ] 0
    print[ P_Cartesian ] 0
end
*xyz 0 1
 C        0.7985070000    -0.2778120000     0.4347910000 
 C        2.2411830000    -0.1000350000    -0.0338200000 
 C        3.0507590000    -1.3279270000     0.2480520000 
 C        4.1057090000    -1.3854470000     1.0482660000 
 C        2.2879130000     0.2452670000    -1.5067060000 
 C        2.1239940000     1.6673640000    -1.9463530000 
 C        3.4559150000     0.9874810000    -2.0700540000 
 H        0.7536510000    -0.4741990000     1.5080320000 
 H        0.3253670000    -1.1197810000    -0.0793010000 
 H        0.2104310000     0.6175040000     0.2192360000 
 H        2.6893160000     0.7352450000     0.5193230000 
 H        2.7220070000    -2.2341780000    -0.2610270000 
 H        4.4643610000    -0.5063160000     1.5755950000 
 H        4.6498430000    -2.3092500000     1.2081570000 
 H        1.8421200000    -0.5065520000    -2.1532800000 
 H        2.0130530000     2.4212340000    -1.1749120000 
 H        1.5636590000     1.8703740000    -2.8507080000 
 H        4.2388140000     1.2794390000    -1.3794190000 
 H        3.8095890000     0.7253870000    -3.0593840000 
*
