! RI PBE def2-SVP def2-SVP/J NBO PAL2
% maxcore 2000
% output
    # printlevel mini
    print[ P_Basis ] 0
    print[ P_SCFInfo ] 1
    print[ P_SCFIterInfo ] 1
    print[ P_OrbEn ] 0
    print[ P_Cartesian ] 0
end
*xyz 0 1
 C        0.8583720000    -0.0171800000     0.0225750000 
 C        2.3082560000    -0.0321420000    -0.0415360000 
 C        3.5096690000    -0.0463290000    -0.0924270000 
 C        4.9642580000    -0.0603690000    -0.1719170000 
 C        5.4860190000    -0.2589910000    -1.5761970000 
 C        6.8508310000    -0.8376870000    -1.7783590000 
 C        5.6315590000    -1.6406520000    -2.1261370000 
 H        0.4204310000    -0.1440920000    -0.9708310000 
 H        0.4914060000     0.9277880000     0.4313890000 
 H        0.4841920000    -0.8242140000     0.6577750000 
 H        5.3545340000    -0.8592400000     0.4700210000 
 H        5.3575040000     0.8773880000     0.2380690000 
 H        5.1747950000     0.5067560000    -2.2787620000 
 H        7.4106240000    -1.1263600000    -0.8960050000 
 H        7.4606460000    -0.4515810000    -2.5855990000 
 H        5.3674330000    -2.4669130000    -1.4764310000 
 H        5.4065700000    -1.8058730000    -3.1722180000 
*
