! RI PBE def2-SVP def2-SVP/J NBO PAL2
% maxcore 2000
% output
    # printlevel mini
    print[ P_Basis ] 0
    print[ P_SCFInfo ] 1
    print[ P_SCFIterInfo ] 1
    print[ P_OrbEn ] 0
    print[ P_Cartesian ] 0
end
*xyz 0 1
 C        1.9032710000     1.2397370000     0.3516620000 
 C        2.5742350000    -0.0800150000    -0.0142680000 
 C        3.0576930000    -0.8340680000     1.1803990000 
 C        4.3209550000    -1.1775990000     1.4064340000 
 C        4.8345230000    -1.8977540000     2.5907020000 
 C        5.3719160000    -1.1312790000     3.7710600000 
 C        4.1039390000    -1.9198810000     3.8948850000 
 H        1.5276340000     1.7519170000    -0.5373410000 
 H        2.6047090000     1.9074830000     0.8575270000 
 H        1.0569520000     1.0774340000     1.0246880000 
 H        3.4115800000     0.1017770000    -0.6950650000 
 H        1.8547930000    -0.7003740000    -0.5634270000 
 H        2.2988730000    -1.1067950000     1.9129600000 
 H        5.0707920000    -0.9130230000     0.6603030000 
 H        5.3947330000    -2.7984750000     2.3526580000 
 H        5.2852110000    -0.0521150000     3.7364390000 
 H        6.2638110000    -1.5016700000     4.2614280000 
 H        3.1775810000    -1.3648180000     3.9710150000 
 H        4.1234970000    -2.8354940000     4.4726410000 
*
