! RI PBE def2-SVP def2-SVP/J NBO PAL2
% maxcore 2000
% output
    # printlevel mini
    print[ P_Basis ] 0
    print[ P_SCFInfo ] 1
    print[ P_SCFIterInfo ] 1
    print[ P_OrbEn ] 0
    print[ P_Cartesian ] 0
end
*xyz 0 1
 C        1.1690350000    -0.2427960000    -0.1971280000 
 C        2.4958370000     0.4127990000     0.1779430000 
 C        3.1029540000    -0.1565180000     1.3713050000 
 C        3.5905020000    -0.6382230000     2.3618850000 
 C        4.1749440000    -1.2065070000     3.5403160000 
 C        4.0221820000    -2.6804860000     3.8243980000 
 C        5.3532140000    -2.1418040000     3.4239470000 
 H        0.7538700000     0.2189670000    -1.0957630000 
 H        0.4426840000    -0.1379550000     0.6106590000 
 H        1.3038750000    -1.3085510000    -0.3901100000 
 H        2.3453270000     1.4863790000     0.3362900000 
 H        3.1993190000     0.3283810000    -0.6578300000 
 H        4.1728670000    -0.5563620000     4.4091200000 
 H        3.4698330000    -3.2618780000     3.0980610000 
 H        3.8715990000    -2.9732590000     4.8558690000 
 H        5.7080770000    -2.3557020000     2.4244260000 
 H        6.1267820000    -2.0609850000     4.1772110000 
*
