! RI PBE def2-SVP def2-SVP/J NBO PAL2
% maxcore 2000
% output
    # printlevel mini
    print[ P_Basis ] 0
    print[ P_SCFInfo ] 1
    print[ P_SCFIterInfo ] 1
    print[ P_OrbEn ] 0
    print[ P_Cartesian ] 0
end
*xyz 0 1
 C        1.1770670000     0.8565760000    -0.0370880000 
 C        2.2768280000     0.3852870000    -0.6161940000 
 C        2.7393370000    -1.0051810000    -0.5458130000 
 C        1.9117160000    -2.0478000000    -0.5518810000 
 C        4.2384120000    -1.2059600000    -0.4708820000 
 C        4.9483130000    -0.6621750000    -1.6195840000 
 C        5.5256540000    -0.2111610000    -2.5703830000 
 H        0.8910840000     1.8965790000    -0.1401380000 
 H        0.5353620000     0.2233750000     0.5664820000 
 H        2.9190930000     1.0670250000    -1.1698560000 
 H        0.8402030000    -1.9137860000    -0.6417120000 
 H        2.2823240000    -3.0643980000    -0.4842770000 
 H        4.4592280000    -2.2729430000    -0.3809620000 
 H        4.6245190000    -0.7243790000     0.4360840000 
 H        6.0397610000     0.1841230000    -3.4142060000 
*
