! RI PBE def2-SVP def2-SVP/J NBO PAL2
% maxcore 2000
% output
    # printlevel mini
    print[ P_Basis ] 0
    print[ P_SCFInfo ] 1
    print[ P_SCFIterInfo ] 1
    print[ P_OrbEn ] 0
    print[ P_Cartesian ] 0
end
*xyz 0 1
 C        1.2983100000    -0.1756940000    -0.7046320000 
 C        2.2651910000    -0.6602000000     0.0601320000 
 C        3.1053340000     0.1566040000     1.0068710000 
 C        2.8211230000    -0.2723050000     2.4262950000 
 C        3.7239830000    -0.5677250000     3.3504010000 
 C        4.5538450000     0.0450630000     0.6375860000 
 C        5.3384550000     1.0664250000     0.3285060000 
 H        0.7206190000    -0.8159120000    -1.3612250000 
 H        1.0510310000     0.8815670000    -0.7046230000 
 H        2.4888460000    -1.7253870000     0.0363060000 
 H        2.7964230000     1.2052580000     0.9064740000 
 H        1.7633650000    -0.3323900000     2.6739680000 
 H        4.7884620000    -0.5135760000     3.1493000000 
 H        3.4237350000    -0.8623660000     4.3492590000 
 H        4.9595580000    -0.9651050000     0.6214810000 
 H        4.9697160000     2.0875480000     0.3336950000 
 H        6.3775950000     0.9205030000     0.0568860000 
*
