! RI PBE def2-SVP def2-SVP/J NBO PAL2
% maxcore 2000
% output
    # printlevel mini
    print[ P_Basis ] 0
    print[ P_SCFInfo ] 1
    print[ P_SCFIterInfo ] 1
    print[ P_OrbEn ] 0
    print[ P_Cartesian ] 0
end
*xyz 0 1
 C        1.4238000000     0.5859550000     0.7755450000 
 C        2.2869250000    -0.0141410000    -0.0279040000 
 C        3.0477830000    -1.2675360000     0.3313320000 
 C        2.6609310000    -2.4059820000    -0.5814830000 
 C        2.0640090000    -3.5141590000    -0.1736960000 
 C        4.4877510000    -1.0250910000     0.2564130000 
 C        5.6674160000    -0.8206130000     0.1692510000 
 H        0.8941090000     1.4795290000     0.4671560000 
 H        1.2152220000     0.2079280000     1.7714480000 
 H        2.4860490000     0.3858030000    -1.0189190000 
 H        2.7934900000    -1.5454230000     1.3601340000 
 H        2.9013870000    -2.2651390000    -1.6322250000 
 H        1.8212440000    -3.6786220000     0.8714160000 
 H        1.7969240000    -4.2996400000    -0.8707140000 
 H        6.7142620000    -0.6413790000     0.1014270000 
*
