! RI PBE def2-SVP def2-SVP/J NBO PAL2
% maxcore 2000
% output
    # printlevel mini
    print[ P_Basis ] 0
    print[ P_SCFInfo ] 1
    print[ P_SCFIterInfo ] 1
    print[ P_OrbEn ] 0
    print[ P_Cartesian ] 0
end
*xyz 0 1
 C        0.8913010000    -0.0569840000    -0.4250480000 
 C        2.0434300000    -0.0479750000     0.2445480000 
 C        2.7628120000     1.1222330000     0.5948250000 
 C        3.4046300000     2.0906800000     0.9116580000 
 C        4.1617360000     3.2788110000     1.2827310000 
 C        5.3902280000     2.9875110000     2.0133250000 
 C        6.4026800000     2.7634780000     2.6144940000 
 H        0.3949900000    -0.9904390000    -0.6594400000 
 H        0.4192830000     0.8613960000    -0.7530690000 
 H        2.4886830000    -0.9891320000     0.5582620000 
 H        3.5300610000     3.9373410000     1.8913070000 
 H        4.4084880000     3.8498000000     0.3793330000 
 H        7.3004770000     2.5584910000     3.1479640000 
*
