! RI PBE def2-SVP def2-SVP/J NBO PAL2
% maxcore 2000
% output
    # printlevel mini
    print[ P_Basis ] 0
    print[ P_SCFInfo ] 1
    print[ P_SCFIterInfo ] 1
    print[ P_OrbEn ] 0
    print[ P_Cartesian ] 0
end
*xyz 0 1
 C        1.1534560000    -0.6296560000    -1.6382590000 
 C        2.3577440000    -0.2569590000    -2.0472930000 
 C        3.1396370000     0.8899220000    -1.4807650000 
 C        4.4323870000     0.4448020000    -0.8753220000 
 C        5.6429580000     0.8383580000    -1.2771220000 
 C        6.8829930000     0.3884210000    -0.6808070000 
 C        8.0936560000     0.7829750000    -1.0746670000 
 H        0.6383220000    -1.4727780000    -2.0837870000 
 H        0.6363450000    -0.1001330000    -0.8435570000 
 H        2.8485940000    -0.8147370000    -2.8424440000 
 H        2.5281360000     1.3950040000    -0.7236330000 
 H        3.3470780000     1.6216370000    -2.2698690000 
 H        4.3561090000    -0.2662000000    -0.0539520000 
 H        5.7253580000     1.5451640000    -2.1019670000 
 H        6.7945090000    -0.3192500000     0.1411510000 
 H        8.2192380000     1.4872670000    -1.8909700000 
 H        8.9937790000     0.4166420000    -0.5967380000 
*
