! RI PBE def2-SVP def2-SVP/J NBO PAL2
% maxcore 2000
% output
    # printlevel mini
    print[ P_Basis ] 0
    print[ P_SCFInfo ] 1
    print[ P_SCFIterInfo ] 1
    print[ P_OrbEn ] 0
    print[ P_Cartesian ] 0
end
*xyz 0 1
 C        1.3209020000     0.7514580000    -0.8159190000 
 C        2.2382090000     0.2785500000     0.0152080000 
 C        3.1443570000    -0.8793890000    -0.2792590000 
 C        4.5837730000    -0.4786000000    -0.2765790000 
 C        5.5014240000    -0.9769860000     0.5555820000 
 C        6.8648910000    -0.5916250000     0.5620700000 
 C        8.0289080000    -0.2870960000     0.5941790000 
 H        0.6956830000     1.5955670000    -0.5492640000 
 H        1.1593480000     0.3078440000    -1.7938230000 
 H        2.3769850000     0.7516530000     0.9851490000 
 H        2.8808740000    -1.2957650000    -1.2584750000 
 H        2.9899180000    -1.6704360000     0.4631460000 
 H        4.8805090000     0.2793740000    -0.9970150000 
 H        5.2105660000    -1.7317910000     1.2836380000 
 H        9.0563520000    -0.0110470000     0.6153520000 
*
