! RI PBE def2-SVP def2-SVP/J NBO PAL2
% maxcore 2000
% output
    # printlevel mini
    print[ P_Basis ] 0
    print[ P_SCFInfo ] 1
    print[ P_SCFIterInfo ] 1
    print[ P_OrbEn ] 0
    print[ P_Cartesian ] 0
end
*xyz 0 1
 C        2.1888630000    -1.3676710000    -2.5645780000 
 C        2.8814980000    -0.6147800000    -1.7225620000 
 C        3.4663010000    -1.0859460000    -0.4240170000 
 C        4.8936500000    -0.6525050000    -0.2068710000 
 C        5.1898930000     0.3116250000     0.6701160000 
 C        5.9655710000    -1.2914510000    -0.9641170000 
 C        5.8232360000    -2.2680210000    -1.8582850000 
 H        1.7661080000    -0.9580220000    -3.4744560000 
 H        2.0161930000    -2.4229120000    -2.3733910000 
 H        3.0350580000     0.4380970000    -1.9509910000 
 H        3.3865130000    -2.1761260000    -0.3614730000 
 H        2.8650820000    -0.6772620000     0.3954530000 
 H        4.4225540000     0.8002270000     1.2599040000 
 H        6.2131110000     0.6375280000     0.8226180000 
 H        6.9648900000    -0.9186920000    -0.7501550000 
 H        4.8532350000    -2.6691190000    -2.1257230000 
 H        6.6841320000    -2.6890810000    -2.3634700000 
*
