! RI PBE def2-SVP def2-SVP/J NBO PAL2
% maxcore 2000
% output
    # printlevel mini
    print[ P_Basis ] 0
    print[ P_SCFInfo ] 1
    print[ P_SCFIterInfo ] 1
    print[ P_OrbEn ] 0
    print[ P_Cartesian ] 0
end
*xyz 0 1
 C        1.3308240000    -0.8706340000    -0.1252360000 
 C        2.2653170000     0.0661420000    -0.0931680000 
 C        3.0431940000     0.4412360000     1.1367560000 
 C        4.4825150000     0.3672050000     0.9345950000 
 C        5.6724280000     0.2962650000     0.7525290000 
 C        7.0701460000     0.2488370000     0.5194510000 
 C        7.8941320000    -0.6639460000     1.0337840000 
 H        0.7887200000    -1.0962670000    -1.0359900000 
 H        1.0741520000    -1.4481880000     0.7574980000 
 H        2.5114110000     0.6214610000    -0.9944030000 
 H        2.7502740000    -0.2044390000     1.9706280000 
 H        2.7841530000     1.4674260000     1.4294740000 
 H        7.4725240000     1.0251990000    -0.1273080000 
 H        7.5315720000    -1.4528660000     1.6818340000 
 H        8.9544310000    -0.6383310000     0.8147670000 
*
