! RI PBE def2-SVP def2-SVP/J NBO PAL2
% maxcore 2000
% output
    # printlevel mini
    print[ P_Basis ] 0
    print[ P_SCFInfo ] 1
    print[ P_SCFIterInfo ] 1
    print[ P_OrbEn ] 0
    print[ P_Cartesian ] 0
end
*xyz 0 1
 C        1.5360680000    -0.9268860000    -0.5674700000 
 C        2.4168740000    -0.1724820000     0.0747940000 
 C        3.1013780000    -0.5400380000     1.3485610000 
 C        4.6203910000    -0.5935850000     1.2100720000 
 C        5.3225020000    -0.9142940000     2.5267470000 
 C        6.8095350000    -0.9126460000     2.4048630000 
 C        7.5998290000    -1.9486280000     2.6490410000 
 H        1.0787760000    -0.6028110000    -1.4951970000 
 H        1.2373900000    -1.8983620000    -0.1847170000 
 H        2.6881040000     0.7941870000    -0.3484050000 
 H        2.7252350000    -1.5055900000     1.7032290000 
 H        2.8477630000     0.1980430000     2.1211850000 
 H        4.9848240000     0.3677850000     0.8284250000 
 H        4.8923880000    -1.3424680000     0.4594150000 
 H        4.9850130000    -1.8863590000     2.9019240000 
 H        5.0202480000    -0.1680150000     3.2735680000 
 H        7.2581070000     0.0241370000     2.0757220000 
 H        7.1972460000    -2.9025920000     2.9766890000 
 H        8.6756480000    -1.8828850000     2.5345450000 
*
