! RI PBE def2-SVP def2-SVP/J NBO PAL2
% maxcore 2000
% output
    # printlevel mini
    print[ P_Basis ] 0
    print[ P_SCFInfo ] 1
    print[ P_SCFIterInfo ] 1
    print[ P_OrbEn ] 0
    print[ P_Cartesian ] 0
end
*xyz 0 1
 C        0.9771000000    -0.0636780000    -0.0763230000 
 C        2.1727120000    -0.0027040000    -0.0993160000 
 C        3.6385590000     0.0519560000    -0.1186940000 
 C        4.1545960000     0.2478010000    -1.4779050000 
 C        4.5843740000     0.3913220000    -2.5862490000 
 C        4.1542890000     1.0663320000     0.8071450000 
 C        4.5838280000     1.8809910000     1.5723650000 
 H       -0.0860480000    -0.1134870000    -0.0590020000 
 H        4.0053130000    -0.9245630000     0.2311550000 
 H        4.9625910000     0.5252400000    -3.5721930000 
 H        4.9621850000     2.6105900000     2.2488260000 
*
