! RI PBE def2-SVP def2-SVP/J NBO PAL2
% maxcore 2000
% output
    # printlevel mini
    print[ P_Basis ] 0
    print[ P_SCFInfo ] 1
    print[ P_SCFIterInfo ] 1
    print[ P_OrbEn ] 0
    print[ P_Cartesian ] 0
end
*xyz 0 1
 C        2.7971920000    -2.5885870000     1.1614340000 
 C        3.1961430000    -1.5616140000     0.6863110000 
 C        3.6803760000    -0.3063770000     0.1287190000 
 C        4.2038600000     0.6254010000     1.1784390000 
 C        5.4258440000     1.1580120000     1.1459920000 
 C        5.9273370000     2.0555260000     2.1207290000 
 C        6.3841750000     2.8196500000     2.9302100000 
 H        2.4461420000    -3.5020720000     1.5797700000 
 H        2.8524500000     0.1770510000    -0.4064060000 
 H        4.4573760000    -0.5079220000    -0.6151930000 
 H        3.5323780000     0.8659560000     1.9968760000 
 H        6.1010400000     0.9045230000     0.3311800000 
 H        6.7805850000     3.4932510000     3.6524510000 
*
