! RI PBE def2-SVP def2-SVP/J NBO PAL2
% maxcore 2000
% output
    # printlevel mini
    print[ P_Basis ] 0
    print[ P_SCFInfo ] 1
    print[ P_SCFIterInfo ] 1
    print[ P_OrbEn ] 0
    print[ P_Cartesian ] 0
end
*xyz 0 1
 C        1.0671110000     1.0057190000    -0.5868940000 
 C        2.3691540000     0.4858280000    -0.0900750000 
 C        2.6860580000    -0.7765360000     0.2524720000 
 C        1.7134860000    -1.8665740000     0.2482000000 
 C        2.0040790000    -3.1578450000     0.4061850000 
 C        4.0563540000    -1.0901980000     0.6905630000 
 C        5.1672530000    -0.6592590000     0.1024710000 
 H        1.1960730000     1.4638240000    -1.5736170000 
 H        0.6900840000     1.7960840000     0.0706420000 
 H        0.2966150000     0.2415950000    -0.6774490000 
 H        3.1575470000     1.2281570000     0.0076780000 
 H        0.6731230000    -1.5916650000     0.1075580000 
 H        3.0221620000    -3.5083650000     0.5332610000 
 H        1.2238940000    -3.9094180000     0.4003050000 
 H        4.1404210000    -1.7327080000     1.5647860000 
 H        5.1350430000    -0.0589470000    -0.8007250000 
 H        6.1453340000    -0.9014830000     0.5016410000 
*
