! RI PBE def2-SVP def2-SVP/J NBO PAL2
% maxcore 2000
% output
    # printlevel mini
    print[ P_Basis ] 0
    print[ P_SCFInfo ] 1
    print[ P_SCFIterInfo ] 1
    print[ P_OrbEn ] 0
    print[ P_Cartesian ] 0
end
*xyz 0 1
 C        0.8889660000    -0.2606890000     0.1200010000 
 C        2.3638220000    -0.0868790000     0.2624630000 
 C        3.0324770000     0.7965790000     1.0068620000 
 C        2.3742580000     1.8239310000     1.8765900000 
 C        4.5467150000     0.7871820000     0.9944650000 
 C        5.1311480000     2.0898510000     0.4508620000 
 C        5.1367240000     0.4690140000     2.3672990000 
 H        0.5836900000    -0.1395980000    -0.9247150000 
 H        0.3114860000     0.4442070000     0.7174470000 
 H        0.5877150000    -1.2714890000     0.4146540000 
 H        2.9605500000    -0.7822680000    -0.3268370000 
 H        1.2878530000     1.7709360000     1.8357860000 
 H        2.6670670000     2.8361510000     1.5815730000 
 H        2.6719360000     1.7040050000     2.9227060000 
 H        4.8466010000    -0.0171160000     0.3133540000 
 H        4.9246510000     2.9319390000     1.1168950000 
 H        4.7215380000     2.3282420000    -0.5334770000 
 H        6.2174050000     2.0103510000     0.3563380000 
 H        4.9298400000     1.2646780000     3.0880390000 
 H        6.2231370000     0.3663580000     2.3010500000 
 H        4.7316230000    -0.4636060000     2.7668550000 
*
