! RI PBE def2-SVP def2-SVP/J NBO PAL2
% maxcore 2000
% output
    # printlevel mini
    print[ P_Basis ] 0
    print[ P_SCFInfo ] 1
    print[ P_SCFIterInfo ] 1
    print[ P_OrbEn ] 0
    print[ P_Cartesian ] 0
end
*xyz 0 1
 C        0.9777690000     0.1302310000    -0.2412140000 
 C        2.4505160000     0.3406290000    -0.1743440000 
 C        3.1668420000     0.9528080000     0.7811730000 
 C        2.5425810000     1.5548790000     2.0041620000 
 C        4.6330680000     1.0561330000     0.6556310000 
 C        5.3053210000     0.4686440000    -0.5512010000 
 C        5.3765180000     1.6597570000     1.5897770000 
 H        0.7464280000    -0.9385300000    -0.3055550000 
 H        0.5667860000     0.5867210000    -1.1481960000 
 H        0.4356060000     0.5372570000     0.6111330000 
 H        2.9916410000    -0.0649100000    -1.0238770000 
 H        1.4615160000     1.4345380000     2.0164850000 
 H        2.7590280000     2.6251650000     2.0673230000 
 H        2.9391490000     1.0936730000     2.9132150000 
 H        4.9423260000     0.9261890000    -1.4760150000 
 H        5.1230480000    -0.6070530000    -0.6289560000 
 H        6.3828880000     0.6250270000    -0.4980260000 
 H        4.9500410000     2.1017240000     2.4807300000 
 H        6.4530250000     1.7273290000     1.4825630000 
*
