! RI PBE def2-SVP def2-SVP/J NBO PAL2
% maxcore 2000
% output
    # printlevel mini
    print[ P_Basis ] 0
    print[ P_SCFInfo ] 1
    print[ P_SCFIterInfo ] 1
    print[ P_OrbEn ] 0
    print[ P_Cartesian ] 0
end
*xyz 0 1
 C        0.7738690000     0.1615860000    -0.3489710000 
 C        2.2543000000     0.0305890000    -0.2366800000 
 C        2.9501970000    -0.9126950000     0.3966640000 
 C        2.3696160000    -2.0658090000     1.1486550000 
 C        4.4621430000    -0.8682840000     0.3668360000 
 C        5.0681760000    -0.7563650000     1.6871410000 
 C        5.5599930000    -0.6616890000     2.7783660000 
 H        0.4381010000     1.1135640000     0.0749200000 
 H        0.2334980000    -0.6377400000     0.1572590000 
 H        0.4639590000     0.1626890000    -1.3990130000 
 H        2.8226670000     0.8125220000    -0.7379770000 
 H        1.2811660000    -2.0610730000     1.1569190000 
 H        2.7207530000    -2.0593400000     2.1848290000 
 H        2.7012660000    -3.0145800000     0.7122070000 
 H        4.7957530000    -0.0305200000    -0.2521010000 
 H        4.8441110000    -1.7816350000    -0.1086780000 
 H        5.9993310000    -0.5746320000     3.7436430000 
*
