! RI PBE def2-SVP def2-SVP/J NBO PAL2
% maxcore 2000
% output
    # printlevel mini
    print[ P_Basis ] 0
    print[ P_SCFInfo ] 1
    print[ P_SCFIterInfo ] 1
    print[ P_OrbEn ] 0
    print[ P_Cartesian ] 0
end
*xyz 0 1
 C        1.0089020000    -0.0316570000     0.0541050000 
 C        2.4930710000     0.0390710000    -0.0165030000 
 C        3.1769650000     0.8547140000    -0.8425480000 
 C        2.5017120000     1.7367400000    -1.7371070000 
 C        1.9236110000     2.4768850000    -2.4879610000 
 C        4.6033510000     0.8729870000    -0.8602250000 
 C        5.8047560000     0.8992830000    -0.8861190000 
 H        0.6808310000    -0.7617720000     0.7930930000 
 H        0.5815300000    -0.3055440000    -0.9153670000 
 H        0.5807790000     0.9408570000     0.3157790000 
 H        3.0761750000    -0.6033350000     0.6349090000 
 H        1.4191440000     3.1346570000    -3.1555540000 
 H        6.8685020000     0.9206850000    -0.9069930000 
*
