! RI PBE def2-SVP def2-SVP/J NBO PAL2
% maxcore 2000
% output
    # printlevel mini
    print[ P_Basis ] 0
    print[ P_SCFInfo ] 1
    print[ P_SCFIterInfo ] 1
    print[ P_OrbEn ] 0
    print[ P_Cartesian ] 0
end
*xyz 0 1
 C        0.7415870000    -0.8181200000    -0.6346070000 
 C        2.2234070000    -0.7360520000    -0.5296830000 
 C        3.0140990000    -1.7012570000    -0.0512220000 
 C        4.4533810000    -1.5913950000     0.0380570000 
 C        5.3170740000    -2.5070600000     0.5026300000 
 C        4.9262290000    -3.8508660000     1.0285540000 
 C        6.7866460000    -2.2305040000     0.5249660000 
 H        0.4091820000    -0.6964560000    -1.6712450000 
 H        0.2576550000    -0.0214100000    -0.0593030000 
 H        0.3670250000    -1.7762450000    -0.2685780000 
 H        2.6854670000     0.1886250000    -0.8734240000 
 H        2.5469140000    -2.6218820000     0.2903450000 
 H        4.8678910000    -0.6493030000    -0.3174400000 
 H        3.8528790000    -4.0303430000     1.0027530000 
 H        5.2641340000    -3.9692040000     2.0641010000 
 H        5.4157110000    -4.6440230000     0.4524890000 
 H        7.0200700000    -1.2399460000     0.1321700000 
 H        7.3338380000    -2.9727720000    -0.0674590000 
 H        7.1822900000    -2.2976880000     1.5449170000 
*
