! RI PBE def2-SVP def2-SVP/J NBO PAL2
% maxcore 2000
% output
    # printlevel mini
    print[ P_Basis ] 0
    print[ P_SCFInfo ] 1
    print[ P_SCFIterInfo ] 1
    print[ P_OrbEn ] 0
    print[ P_Cartesian ] 0
end
*xyz 0 1
 C        0.8034130000    -0.1719200000    -0.1754270000 
 C        2.2875310000    -0.2288880000    -0.2099800000 
 C        3.0963690000     0.8293120000    -0.3298450000 
 C        4.5327040000     0.7385760000    -0.3601240000 
 C        5.3482150000     1.8006430000    -0.4805440000 
 C        6.7573910000     1.7182760000    -0.5108310000 
 C        7.9612700000     1.6801460000    -0.5396490000 
 H        0.4152830000    -0.5999770000     0.7549080000 
 H        0.3685470000    -0.7601980000    -0.9904450000 
 H        0.4373160000     0.8527890000    -0.2597300000 
 H        2.7401960000    -1.2161470000    -0.1306280000 
 H        2.6621070000     1.8246470000    -0.4103950000 
 H        4.9714980000    -0.2527480000    -0.2800380000 
 H        4.9185020000     2.7966820000    -0.5612680000 
 H        9.0241570000     1.6380160000    -0.5640040000 
*
