! RI PBE def2-SVP def2-SVP/J NBO PAL2
% maxcore 2000
% output
    # printlevel mini
    print[ P_Basis ] 0
    print[ P_SCFInfo ] 1
    print[ P_SCFIterInfo ] 1
    print[ P_OrbEn ] 0
    print[ P_Cartesian ] 0
end
*xyz 0 1
 C        1.0634310000     0.6448570000    -0.6815180000 
 C        2.5198760000     0.6518170000    -0.3746600000 
 C        3.4372400000    -0.0667360000    -1.0175680000 
 C        4.8701480000    -0.0864340000    -0.6914810000 
 C        5.3041750000    -0.1300890000     0.5758010000 
 C        5.8397830000    -0.0822020000    -1.7867390000 
 C        5.5559010000     0.0672800000    -3.0789930000 
 H        0.4817030000     0.3220050000     0.1882980000 
 H        0.8308470000    -0.0232630000    -1.5128390000 
 H        0.7088810000     1.6486970000    -0.9366480000 
 H        2.8454300000     1.3067610000     0.4315480000 
 H        3.1239490000    -0.6848530000    -1.8572470000 
 H        4.6146480000    -0.1826650000     1.4093010000 
 H        6.3645670000    -0.1234150000     0.8028800000 
 H        6.8775450000    -0.2072320000    -1.4866410000 
 H        4.5409510000     0.2121830000    -3.4314070000 
 H        6.3389150000     0.0596010000    -3.8274860000 
*
