! RI PBE def2-SVP def2-SVP/J NBO PAL2
% maxcore 2000
% output
    # printlevel mini
    print[ P_Basis ] 0
    print[ P_SCFInfo ] 1
    print[ P_SCFIterInfo ] 1
    print[ P_OrbEn ] 0
    print[ P_Cartesian ] 0
end
*xyz 0 1
 C        0.8249420000    -0.3226260000     0.0238840000 
 C        2.2818950000    -0.5241800000    -0.1925460000 
 C        3.0636650000     0.2907290000    -0.8995940000 
 C        4.4965270000     0.1042020000    -1.1196470000 
 C        5.2143040000     0.9744410000    -1.8467310000 
 C        5.1319270000    -1.0365870000    -0.5400600000 
 C        5.6518710000    -2.0014500000    -0.0456670000 
 H        0.5949630000    -0.2459480000     1.0916800000 
 H        0.2514350000    -1.1747800000    -0.3553780000 
 H        0.4631930000     0.5809770000    -0.4701760000 
 H        2.7324620000    -1.4031970000     0.2634570000 
 H        2.6368680000     1.1762750000    -1.3654980000 
 H        4.7408540000     1.8425960000    -2.2902930000 
 H        6.2747600000     0.8354940000    -2.0090590000 
 H        6.1238330000    -2.8517440000     0.3867280000 
*
