! RI PBE def2-SVP def2-SVP/J NBO PAL2
% maxcore 2000
% output
    # printlevel mini
    print[ P_Basis ] 0
    print[ P_SCFInfo ] 1
    print[ P_SCFIterInfo ] 1
    print[ P_OrbEn ] 0
    print[ P_Cartesian ] 0
end
*xyz 0 1
 C        0.9042470000     1.7306780000    -0.9286390000 
 C        2.3819930000     1.7808190000    -1.1258220000 
 C        3.2459120000     0.9346680000    -0.5783650000 
 C        4.7446910000     0.9175790000    -0.7269360000 
 C        5.3675740000     1.0612440000     0.6660690000 
 C        5.1541980000    -0.4376830000    -1.3140120000 
 C        5.2575990000     2.0340050000    -1.6273450000 
 H        0.5317360000     2.6615680000    -0.4887510000 
 H        0.6158280000     0.9062270000    -0.2733590000 
 H        0.3815550000     1.6062220000    -1.8826450000 
 H        2.7499840000     2.5775710000    -1.7686260000 
 H        2.8523850000     0.1436520000     0.0628550000 
 H        5.0125380000     0.2747070000     1.3377570000 
 H        5.1105410000     2.0252450000     1.1117460000 
 H        6.4576550000     0.9884430000     0.6103080000 
 H        4.7939900000    -1.2605430000    -0.6903090000 
 H        6.2433820000    -0.5167860000    -1.3780960000 
 H        4.7410690000    -0.5702320000    -2.3168820000 
 H        4.9976830000     3.0185280000    -1.2301650000 
 H        4.8461200000     1.9537580000    -2.6367210000 
 H        6.3468010000     1.9833390000    -1.7063590000 
*
