! RI PBE def2-SVP def2-SVP/J NBO PAL2
% maxcore 2000
% output
    # printlevel mini
    print[ P_Basis ] 0
    print[ P_SCFInfo ] 1
    print[ P_SCFIterInfo ] 1
    print[ P_OrbEn ] 0
    print[ P_Cartesian ] 0
end
*xyz 0 1
 C        0.6622890000    -0.4969570000    -0.7535420000 
 C        2.1365640000    -0.3560490000    -0.9211430000 
 C        3.0474800000    -1.1634890000    -0.3918890000 
 C        4.5347730000    -1.0249740000    -0.5630980000 
 C        5.2247210000    -0.8386170000     0.7815400000 
 C        5.0538340000    -2.1937440000    -1.3559280000 
 C        5.9680360000    -3.0733030000    -0.9696330000 
 H        0.2291590000     0.3973410000    -0.2940630000 
 H        0.4118710000    -1.3562790000    -0.1284600000 
 H        0.1652360000    -0.6229250000    -1.7208860000 
 H        2.4767520000     0.4822650000    -1.5290050000 
 H        2.7223470000    -2.0088070000     0.2153720000 
 H        4.7069620000    -0.1256970000    -1.1702870000 
 H        5.0517690000    -1.6978540000     1.4353590000 
 H        4.8348910000     0.0472390000     1.2859390000 
 H        6.3039490000    -0.7180450000     0.6607170000 
 H        4.5974760000    -2.3082530000    -2.3373030000 
 H        6.4550200000    -3.0166200000    -0.0024580000 
 H        6.2663420000    -3.8892320000    -1.6178120000 
*
