! RI PBE def2-SVP def2-SVP/J NBO PAL2
% maxcore 2000
% output
    # printlevel mini
    print[ P_Basis ] 0
    print[ P_SCFInfo ] 1
    print[ P_SCFIterInfo ] 1
    print[ P_OrbEn ] 0
    print[ P_Cartesian ] 0
end
*xyz 0 1
 C        0.7680110000     0.2446830000     0.7684250000 
 C        2.2495920000     0.1699140000     0.9059190000 
 C        3.0982800000     1.1179210000     0.5325700000 
 C        4.5945370000     1.0191790000     0.6573400000 
 C        5.2712720000     1.0295490000    -0.7189090000 
 C        5.1132740000     2.0986040000     1.4940760000 
 C        5.5374700000     2.9988150000     2.1664180000 
 H        0.3869800000    -0.5755910000     0.1517990000 
 H        0.4558580000     1.1866870000     0.3137650000 
 H        0.2780150000     0.1572060000     1.7433780000 
 H        2.6498400000    -0.7396230000     1.3530750000 
 H        2.7222870000     2.0403980000     0.0927050000 
 H        4.8315860000     0.0701130000     1.1528610000 
 H        5.0394800000     1.9539360000    -1.2519280000 
 H        4.9145210000     0.1875020000    -1.3147880000 
 H        6.3556000000     0.9591670000    -0.6174240000 
 H        5.9118980000     3.7922500000     2.7685960000 
*
