! RI PBE def2-SVP def2-SVP/J NBO PAL2
% maxcore 2000
% output
    # printlevel mini
    print[ P_Basis ] 0
    print[ P_SCFInfo ] 1
    print[ P_SCFIterInfo ] 1
    print[ P_OrbEn ] 0
    print[ P_Cartesian ] 0
end
*xyz 0 1
 C        0.8342250000     0.0252390000     0.0926520000 
 C        2.3091320000    -0.0595090000    -0.0597340000 
 C        3.0408220000    -1.1360920000     0.2492690000 
 C        4.4429380000    -1.2158490000     0.1040580000 
 C        5.6441950000    -1.3081430000    -0.0114660000 
 C        7.0445890000    -1.4458760000    -0.1348100000 
 C        7.8661140000    -0.4969460000    -0.5897800000 
 H        0.3531010000     0.2369650000    -0.8679950000 
 H        0.5564940000     0.8441540000     0.7644830000 
 H        0.4160240000    -0.9015300000     0.4894200000 
 H        2.8196850000     0.8175740000    -0.4494940000 
 H        2.5429610000    -2.0215940000     0.6407030000 
 H        7.4571710000    -2.4049790000     0.1702370000 
 H        7.4939400000     0.4710450000    -0.9030780000 
 H        8.9323270000    -0.6736700000    -0.6569150000 
*
