! RI PBE def2-SVP def2-SVP/J NBO PAL2
% maxcore 2000
% output
    # printlevel mini
    print[ P_Basis ] 0
    print[ P_SCFInfo ] 1
    print[ P_SCFIterInfo ] 1
    print[ P_OrbEn ] 0
    print[ P_Cartesian ] 0
end
*xyz 0 1
 C        0.7710600000    -1.4512080000    -0.1293500000 
 C        2.2587360000    -1.4060780000    -0.2069930000 
 C        2.9575950000    -0.7093940000    -1.0951730000 
 C        4.4532560000    -0.6733590000    -1.1777990000 
 C        4.9637370000    -1.2045690000    -2.4825410000 
 C        5.6638470000    -0.5071650000    -3.3691710000 
 C        6.1639510000    -1.0306580000    -4.6718980000 
 H        0.3999520000    -2.4751130000    -0.2416500000 
 H        0.3125480000    -0.8363480000    -0.9063430000 
 H        0.4144120000    -1.0947320000     0.8424660000 
 H        2.8008840000    -1.9950960000     0.5325890000 
 H        2.4260410000    -0.1227010000    -1.8438860000 
 H        4.8679890000    -1.2593060000    -0.3490680000 
 H        4.8087400000     0.3560610000    -1.0510760000 
 H        4.7131380000    -2.2416060000    -2.7040880000 
 H        5.9024080000     0.5313660000    -3.1402830000 
 H        5.8780590000    -2.0741250000    -4.8183360000 
 H        7.2551000000    -0.9642280000    -4.7325630000 
 H        5.7686370000    -0.4480400000    -5.5103480000 
*
