! RI PBE def2-SVP def2-SVP/J NBO PAL2
% maxcore 2000
% output
    # printlevel mini
    print[ P_Basis ] 0
    print[ P_SCFInfo ] 1
    print[ P_SCFIterInfo ] 1
    print[ P_OrbEn ] 0
    print[ P_Cartesian ] 0
end
*xyz 0 1
 C        0.6543470000     1.3332590000    -0.6728660000 
 C        2.1128650000     1.3597540000    -0.3675510000 
 C        2.6441890000     1.7143920000     0.7962700000 
 C        4.1098120000     1.7325830000     1.1083650000 
 C        4.6099410000     3.0998020000     1.5008720000 
 C        4.5842170000     4.1422890000     0.4291150000 
 C        5.0427910000     3.3540170000     2.7317200000 
 H        0.4142500000     1.9900510000    -1.5152510000 
 H        0.0608420000     1.6511000000     0.1865820000 
 H        0.3288310000     0.3278430000    -0.9588060000 
 H        2.7819130000     1.0559730000    -1.1724880000 
 H        1.9840190000     2.0233220000     1.6065720000 
 H        4.6648460000     1.3785020000     0.2313300000 
 H        4.3177920000     1.0348490000     1.9266030000 
 H        5.2173890000     3.8437030000    -0.4136410000 
 H        4.9345640000     5.1070690000     0.7975950000 
 H        3.5733510000     4.2655390000     0.0292660000 
 H        5.0602330000     2.5837680000     3.4955140000 
 H        5.3965190000     4.3391940000     3.0162910000 
*
