! RI PBE def2-SVP def2-SVP/J NBO PAL2
% maxcore 2000
% output
    # printlevel mini
    print[ P_Basis ] 0
    print[ P_SCFInfo ] 1
    print[ P_SCFIterInfo ] 1
    print[ P_OrbEn ] 0
    print[ P_Cartesian ] 0
end
*xyz 0 1
 C        1.0647040000     1.9198620000     0.6404030000 
 C        2.4811720000     1.5159210000     0.4155250000 
 C        3.0391120000     1.3077520000    -0.7710640000 
 C        4.4580450000     0.9017640000    -0.9912000000 
 C        5.2354750000     1.9397950000    -1.8137210000 
 C        6.6070780000     1.5406390000    -2.0780530000 
 C        7.7372530000     1.1902830000    -2.2826680000 
 H        1.0061880000     2.8668020000     1.1865100000 
 H        0.5341160000     1.1775430000     1.2453180000 
 H        0.5278090000     2.0365570000    -0.3030140000 
 H        3.0932400000     1.3795790000     1.3068470000 
 H        2.4310730000     1.4436200000    -1.6662860000 
 H        4.4977990000    -0.0548630000    -1.5239060000 
 H        4.9606130000     0.7503440000    -0.0323870000 
 H        5.2315820000     2.8985160000    -1.2848780000 
 H        4.7219930000     2.1122930000    -2.7661620000 
 H        8.7398500000     0.8853730000    -2.4674640000 
*
