! RI PBE def2-SVP def2-SVP/J NBO PAL2
% maxcore 2000
% output
    # printlevel mini
    print[ P_Basis ] 0
    print[ P_SCFInfo ] 1
    print[ P_SCFIterInfo ] 1
    print[ P_OrbEn ] 0
    print[ P_Cartesian ] 0
end
*xyz 0 1
 C        4.3424590000    -1.5242550000    -0.4380260000 
 C        3.1547440000    -0.6135710000    -0.3873920000 
 C        2.0229280000    -0.9061130000    -1.0397350000 
 C        3.2424130000     0.6109690000     0.3888040000 
 C        4.3114520000     1.0248170000     1.0880100000 
 C        4.3454310000     2.2536810000     1.8442530000 
 C        5.3994630000     2.6786270000     2.5438580000 
 H        4.1365940000    -2.4001540000    -1.0534080000 
 H        4.6186930000    -1.8666030000     0.5635760000 
 H        5.2144190000    -1.0108530000    -0.8537380000 
 H        1.9239900000    -1.8111450000    -1.6277530000 
 H        1.1648980000    -0.2439920000    -1.0006000000 
 H        2.3507020000     1.2351170000     0.3908500000 
 H        5.2151240000     0.4201910000     1.1027790000 
 H        3.4400640000     2.8572540000     1.8281330000 
 H        6.3189760000     2.1033850000     2.5830300000 
 H        5.3761390000     3.6097540000     3.0962510000 
*
