! RI PBE def2-SVP def2-SVP/J NBO PAL2
% maxcore 2000
% output
    # printlevel mini
    print[ P_Basis ] 0
    print[ P_SCFInfo ] 1
    print[ P_SCFIterInfo ] 1
    print[ P_OrbEn ] 0
    print[ P_Cartesian ] 0
end
*xyz 0 1
 C        1.1883780000    -0.4815770000     0.3224760000 
 C        2.4912880000     0.0608620000    -0.1761440000 
 C        3.0273540000    -0.3610810000    -1.3226640000 
 C        3.1686850000     1.0834840000     0.6453940000 
 C        2.6666190000     1.5367400000     1.8042400000 
 C        4.4135830000     1.6088130000     0.1790430000 
 C        5.4609530000     2.0510310000    -0.2121130000 
 H        0.7943250000    -1.2241450000    -0.3710230000 
 H        0.4426870000     0.3111990000     0.4329180000 
 H        1.3028070000    -0.9561710000     1.3014640000 
 H        2.5304980000    -1.1117320000    -1.9260620000 
 H        3.9701000000     0.0314900000    -1.6831720000 
 H        1.7280660000     1.1690940000     2.1971140000 
 H        3.1917490000     2.2874100000     2.3799020000 
 H        6.3884280000     2.4467940000    -0.5525620000 
*
