! RI PBE def2-SVP def2-SVP/J NBO PAL2
% maxcore 2000
% output
    # printlevel mini
    print[ P_Basis ] 0
    print[ P_SCFInfo ] 1
    print[ P_SCFIterInfo ] 1
    print[ P_OrbEn ] 0
    print[ P_Cartesian ] 0
end
*xyz 0 1
 C        1.0625680000    -0.2133500000     0.0958760000 
 C        2.5422740000     0.0310730000     0.0251830000 
 C        3.1814450000     0.2694880000    -1.1251400000 
 C        3.2467990000    -0.0027820000     1.2590930000 
 C        3.8152060000    -0.0385730000     2.3262880000 
 C        4.4594750000    -0.0847920000     3.5836630000 
 C        5.7675870000     0.1020380000     3.7709310000 
 H        0.6132940000    -0.1684340000    -0.8967600000 
 H        0.5801390000     0.5306820000     0.7349310000 
 H        0.8552220000    -1.1936960000     0.5324640000 
 H        2.6409430000     0.2945240000    -2.0642100000 
 H        4.2496610000     0.4430870000    -1.1509250000 
 H        3.8217370000    -0.2883960000     4.4407770000 
 H        6.4339180000     0.3069090000     2.9416260000 
 H        6.1973310000     0.0529230000     4.7637050000 
*
