! RI PBE def2-SVP def2-SVP/J NBO PAL2
% maxcore 2000
% output
    # printlevel mini
    print[ P_Basis ] 0
    print[ P_SCFInfo ] 1
    print[ P_SCFIterInfo ] 1
    print[ P_OrbEn ] 0
    print[ P_Cartesian ] 0
end
*xyz 0 1
 C        2.8774870000    -1.7116350000     0.5580040000 
 C        3.0738430000    -0.6502540000    -0.4769490000 
 C        2.6382080000    -0.7850180000    -1.7256070000 
 C        3.7891030000     0.5957680000    -0.0194180000 
 C        5.2077750000     0.3509330000     0.4288280000 
 C        6.1468230000    -0.1617920000    -0.6159280000 
 C        5.5947870000     0.5887520000     1.6781280000 
 H        2.3558420000    -2.5782890000     0.1506360000 
 H        2.2985120000    -1.3241140000     1.4032870000 
 H        3.8370130000    -2.0404880000     0.9687000000 
 H        2.1148320000    -1.6780890000    -2.0501900000 
 H        2.7852120000    -0.0035090000    -2.4634060000 
 H        3.2305780000     1.0449690000     0.8093340000 
 H        3.7935670000     1.3208750000    -0.8408570000 
 H        5.7885390000    -1.1072470000    -1.0345600000 
 H        7.1493500000    -0.3143480000    -0.2149080000 
 H        6.2118160000     0.5400510000    -1.4544270000 
 H        4.9016960000     0.9646540000     2.4231350000 
 H        6.6184060000     0.4215790000     1.9961080000 
*
