! RI PBE def2-SVP def2-SVP/J NBO PAL2
% maxcore 2000
% output
    # printlevel mini
    print[ P_Basis ] 0
    print[ P_SCFInfo ] 1
    print[ P_SCFIterInfo ] 1
    print[ P_OrbEn ] 0
    print[ P_Cartesian ] 0
end
*xyz 0 1
 C        3.5792260000     0.7887470000     2.3148380000 
 C        3.0544200000     0.8934910000     0.9165770000 
 C        2.3201470000     1.9283950000     0.5190960000 
 C        3.3918900000    -0.2326580000    -0.0181730000 
 C        4.8898260000    -0.3559490000    -0.3265860000 
 C        5.1721590000    -1.4240290000    -1.3296790000 
 C        5.9335890000    -2.4887680000    -1.1202290000 
 H        3.2371510000     1.6195200000     2.9330430000 
 H        4.6733760000     0.7829920000     2.3316340000 
 H        3.2540360000    -0.1467320000     2.7824140000 
 H        2.0737670000     2.7417830000     1.1932530000 
 H        1.9381970000     1.9950880000    -0.4940890000 
 H        2.8440500000    -0.0999020000    -0.9557970000 
 H        3.0507830000    -1.1810310000     0.4152810000 
 H        5.4539220000    -0.5586240000     0.5881390000 
 H        5.2412100000     0.6090940000    -0.7121440000 
 H        4.6944130000    -1.3020170000    -2.3011880000 
 H        6.4276190000    -2.6526580000    -0.1670500000 
 H        6.0952310000    -3.2330500000    -1.8914400000 
*
