! RI PBE def2-SVP def2-SVP/J NBO PAL2
% maxcore 2000
% output
    # printlevel mini
    print[ P_Basis ] 0
    print[ P_SCFInfo ] 1
    print[ P_SCFIterInfo ] 1
    print[ P_OrbEn ] 0
    print[ P_Cartesian ] 0
end
*xyz 0 1
 C        3.2225330000    -1.9550970000    -0.2537440000 
 C        2.7955650000    -0.6298250000     0.2969340000 
 C        2.1217660000    -0.5275890000     1.4385510000 
 C        3.1527480000     0.5869620000    -0.5073830000 
 C        4.6670340000     0.8384700000    -0.5815590000 
 C        4.9957050000     2.0311530000    -1.3426510000 
 C        5.2435730000     3.0214950000    -1.9747190000 
 H        2.8706960000    -2.7774430000     0.3700110000 
 H        4.3121540000    -2.0304560000    -0.3247150000 
 H        2.8322180000    -2.0990090000    -1.2668330000 
 H        1.8559000000    -1.4035070000     2.0205130000 
 H        1.8094380000     0.4359690000     1.8266590000 
 H        2.6708700000     1.4685010000    -0.0796290000 
 H        2.7728130000     0.4793290000    -1.5297560000 
 H        5.1716460000    -0.0203580000    -1.0350720000 
 H        5.0675190000     0.9346950000     0.4332010000 
 H        5.4696330000     3.8984120000    -2.5335190000 
*
