! RI PBE def2-SVP def2-SVP/J NBO PAL2
% maxcore 2000
% output
    # printlevel mini
    print[ P_Basis ] 0
    print[ P_SCFInfo ] 1
    print[ P_SCFIterInfo ] 1
    print[ P_OrbEn ] 0
    print[ P_Cartesian ] 0
end
*xyz 0 1
 C        1.0711940000    -0.3542840000     0.1478470000 
 C        2.5231190000    -0.0470810000    -0.0694330000 
 C        3.1960410000     0.9893300000     0.4727550000 
 C        2.6647610000     1.9963330000     1.3572340000 
 C        3.4004530000     2.9943750000     1.8532400000 
 C        3.2131920000    -0.9484230000    -0.9258910000 
 C        3.7557540000    -1.7371040000    -1.6567700000 
 H        0.5879820000     0.3620500000     0.8094650000 
 H        0.9571340000    -1.3532070000     0.5771980000 
 H        0.5390880000    -0.3566100000    -0.8071740000 
 H        4.2492670000     1.0839610000     0.2229350000 
 H        1.6160090000     1.9378020000     1.6313210000 
 H        4.4528620000     3.0950210000     1.6082840000 
 H        2.9744530000     3.7373160000     2.5160570000 
 H        4.2483100000    -2.4262690000    -2.3008790000 
*
