! RI PBE def2-SVP def2-SVP/J NBO PAL2
% maxcore 2000
% output
    # printlevel mini
    print[ P_Basis ] 0
    print[ P_SCFInfo ] 1
    print[ P_SCFIterInfo ] 1
    print[ P_OrbEn ] 0
    print[ P_Cartesian ] 0
end
*xyz 0 1
 C        0.9940170000     0.2026500000    -0.0493500000 
 C        2.4817490000     0.0815830000     0.0486340000 
 C        3.1102000000    -0.8461510000     0.7995140000 
 C        2.4529400000    -1.8170320000     1.5853230000 
 C        1.9303310000    -2.6607460000     2.2681790000 
 C        3.2498900000     1.0103170000    -0.7030440000 
 C        3.8592110000     1.8172590000    -1.3561550000 
 H        0.5005030000    -0.5522070000     0.5616430000 
 H        0.6723530000     0.0892010000    -1.0880120000 
 H        0.6723600000     1.1948830000     0.2780160000 
 H        4.1953780000    -0.8623850000     0.8126570000 
 H        1.4649660000    -3.4047120000     2.8703920000 
 H        4.4098940000     2.5252410000    -1.9291890000 
*
