! RI PBE def2-SVP def2-SVP/J NBO PAL2
% maxcore 2000
% output
    # printlevel mini
    print[ P_Basis ] 0
    print[ P_SCFInfo ] 1
    print[ P_SCFIterInfo ] 1
    print[ P_OrbEn ] 0
    print[ P_Cartesian ] 0
end
*xyz 0 1
 C        1.1195080000    -0.1345110000     0.0178050000 
 C        2.5795310000     0.1913780000     0.0764540000 
 C        3.0078670000     1.2128360000     1.0180290000 
 C        2.2030580000     1.8891900000     1.8403280000 
 C        3.4453030000    -0.4595670000    -0.7315940000 
 C        4.8757310000    -0.2886660000    -0.8222510000 
 C        5.6442630000    -0.9881360000    -1.6609280000 
 H        0.7535570000    -0.4843620000     0.9880680000 
 H        0.9209930000    -0.9109760000    -0.7212510000 
 H        0.5280980000     0.7477780000    -0.2458680000 
 H        4.0685640000     1.4387170000     1.0497820000 
 H        1.1324130000     1.7232820000     1.8702750000 
 H        2.5996920000     2.6377770000     2.5152580000 
 H        3.0317930000    -1.2087880000    -1.4040770000 
 H        5.3515150000     0.4438900000    -0.1778300000 
 H        5.2189990000    -1.7326600000    -2.3265380000 
 H        6.7158050000    -0.8387830000    -1.7075410000 
*
