! RI PBE def2-SVP def2-SVP/J NBO PAL2
% maxcore 2000
% output
    # printlevel mini
    print[ P_Basis ] 0
    print[ P_SCFInfo ] 1
    print[ P_SCFIterInfo ] 1
    print[ P_OrbEn ] 0
    print[ P_Cartesian ] 0
end
*xyz 0 1
 C        0.9032920000     0.1965010000     0.2272330000 
 C        2.3929160000     0.2906170000     0.1569150000 
 C        2.9965840000     1.3493460000    -0.6341890000 
 C        2.3217520000     2.2707710000    -1.3227030000 
 C        3.1604670000    -0.5995440000     0.8220690000 
 C        4.5733840000    -0.6159360000     0.8343260000 
 C        5.7765520000    -0.6675140000     0.8728630000 
 H        0.4723470000     0.0609600000    -0.7692110000 
 H        0.4723400000     1.1136720000     0.6396200000 
 H        0.5901970000    -0.6398980000     0.8522080000 
 H        4.0825710000     1.3663470000    -0.6468860000 
 H        1.2381310000     2.2995360000    -1.3442030000 
 H        2.8412250000     3.0321830000    -1.8916450000 
 H        2.6748290000    -1.3782580000     1.4039390000 
 H        6.8394850000    -0.7079450000     0.9029840000 
*
