! RI PBE def2-SVP def2-SVP/J NBO PAL2
% maxcore 2000
% output
    # printlevel mini
    print[ P_Basis ] 0
    print[ P_SCFInfo ] 1
    print[ P_SCFIterInfo ] 1
    print[ P_OrbEn ] 0
    print[ P_Cartesian ] 0
end
*xyz 0 1
 C        1.0788690000     0.2621380000    -0.0389670000 
 C        2.4379220000    -0.3955630000     0.1675820000 
 C        2.7800090000    -0.4152200000     1.6318780000 
 C        3.8119800000     0.2012370000     2.1897550000 
 C        2.5502000000    -1.7944130000    -0.4063580000 
 C        3.9417360000    -2.3405720000    -0.4849510000 
 C        1.4995870000    -2.5018300000    -0.8106720000 
 H        1.1020380000     1.2908150000     0.3252990000 
 H        0.2942250000    -0.2643830000     0.5104700000 
 H        0.8034230000     0.2740910000    -1.0958200000 
 H        3.1979970000     0.2171880000    -0.3357900000 
 H        2.0955970000    -0.9882900000     2.2564950000 
 H        4.5146010000     0.7795180000     1.5970470000 
 H        3.9918210000     0.1540410000     3.2577250000 
 H        4.4199630000    -2.3402660000     0.4987760000 
 H        4.5645870000    -1.7167790000    -1.1352750000 
 H        3.9504220000    -3.3583060000    -0.8766800000 
 H        0.4884570000    -2.1162840000    -0.7694000000 
 H        1.6229560000    -3.5044130000    -1.2056140000 
*
