! RI PBE def2-SVP def2-SVP/J NBO PAL2
% maxcore 2000
% output
    # printlevel mini
    print[ P_Basis ] 0
    print[ P_SCFInfo ] 1
    print[ P_SCFIterInfo ] 1
    print[ P_OrbEn ] 0
    print[ P_Cartesian ] 0
end
*xyz 0 1
 C        0.9971130000     0.1037010000     0.3942200000 
 C        2.4246830000    -0.1073980000    -0.0073010000 
 C        2.6341670000    -1.2605200000    -0.9527100000 
 C        3.3712240000     0.7087080000     0.4818500000 
 C        4.8174310000     0.7558330000     0.2813370000 
 C        5.5299460000    -0.2200400000    -0.6075170000 
 C        5.5165800000     1.7051430000     0.9170870000 
 H        0.5945450000    -0.7933080000     0.8787640000 
 H        0.3700840000     0.2852180000    -0.4863230000 
 H        0.8814020000     0.9453090000     1.0781830000 
 H        1.6808240000    -1.7421640000    -1.1769010000 
 H        3.2922140000    -2.0245570000    -0.5340990000 
 H        3.0677520000    -0.9430260000    -1.9030730000 
 H        3.0167560000     1.4869220000     1.1549740000 
 H        5.1668390000    -0.1679810000    -1.6364400000 
 H        5.3915500000    -1.2493770000    -0.2690560000 
 H        6.5998240000    -0.0093420000    -0.6167210000 
 H        5.0306390000     2.4250800000     1.5662910000 
 H        6.5915370000     1.7871980000     0.8052350000 
*
