! RI PBE def2-SVP def2-SVP/J NBO PAL2
% maxcore 2000
% output
    # printlevel mini
    print[ P_Basis ] 0
    print[ P_SCFInfo ] 1
    print[ P_SCFIterInfo ] 1
    print[ P_OrbEn ] 0
    print[ P_Cartesian ] 0
end
*xyz 0 1
 C        0.7082230000    -0.3039840000     0.2532940000 
 C        2.0925570000     0.0503410000    -0.1914810000 
 C        2.1975150000     0.7067540000    -1.5434460000 
 C        3.1512730000    -0.2143650000     0.5741350000 
 C        4.5831810000     0.0909350000     0.2523190000 
 C        5.2057880000     0.9980430000     1.2696770000 
 C        6.2445250000     0.6879150000     2.0328290000 
 H        0.0732360000     0.5878450000     0.2985320000 
 H        0.7065740000    -0.7769510000     1.2363440000 
 H        0.2322900000    -0.9874130000    -0.4587740000 
 H        1.2087260000     0.8662370000    -1.9768580000 
 H        2.7674550000     0.0947990000    -2.2482770000 
 H        2.6909370000     1.6806890000    -1.4878610000 
 H        2.9838170000    -0.6887410000     1.5390770000 
 H        4.6533280000     0.5535990000    -0.7372530000 
 H        5.1619150000    -0.8394790000     0.2084970000 
 H        4.7362070000     1.9737070000     1.3815650000 
 H        6.7335850000    -0.2786920000     1.9559820000 
 H        6.6449580000     1.3857440000     2.7591880000 
*
