! RI PBE def2-SVP def2-SVP/J NBO PAL2
% maxcore 2000
% output
    # printlevel mini
    print[ P_Basis ] 0
    print[ P_SCFInfo ] 1
    print[ P_SCFIterInfo ] 1
    print[ P_OrbEn ] 0
    print[ P_Cartesian ] 0
end
*xyz 0 1
 C        1.0125860000    -0.0170300000    -0.0923450000 
 C        2.5401720000    -0.0359290000    -0.1055400000 
 C        3.0426090000     0.1595630000    -1.5350130000 
 C        3.0341230000     1.0463540000     0.8269210000 
 C        3.8571850000     2.0439730000     0.5358100000 
 C        3.1001800000    -1.3386290000     0.4180760000 
 C        2.4209010000    -2.3663170000     0.9078270000 
 H        0.6479370000     0.9337290000    -0.4867910000 
 H        0.6191800000    -0.1319720000     0.9205570000 
 H        0.6067600000    -0.8223900000    -0.7098090000 
 H        2.7097420000     1.1194070000    -1.9380760000 
 H        2.6563870000    -0.6341660000    -2.1779190000 
 H        4.1337530000     0.1285850000    -1.5839680000 
 H        2.6557410000     0.9578020000     1.8441830000 
 H        4.2728170000     2.1853300000    -0.4555130000 
 H        4.1455380000     2.7653600000     1.2917260000 
 H        4.1868190000    -1.3981950000     0.3792940000 
 H        1.3390400000    -2.3683450000     0.9787350000 
 H        2.9331320000    -3.2551310000     1.2579460000 
*
