! RI PBE def2-SVP def2-SVP/J NBO PAL2
% maxcore 2000
% output
    # printlevel mini
    print[ P_Basis ] 0
    print[ P_SCFInfo ] 1
    print[ P_SCFIterInfo ] 1
    print[ P_OrbEn ] 0
    print[ P_Cartesian ] 0
end
*xyz 0 1
 C        0.9152900000    -0.0570900000    -0.1586350000 
 C        2.4459020000     0.0417160000    -0.0415680000 
 C        3.0848780000    -0.3224740000    -1.3925750000 
 C        2.8154110000     1.4660760000     0.3019170000 
 C        3.4740600000     1.8830980000     1.3710550000 
 C        2.9099490000    -0.8983110000     0.9765340000 
 C        3.2817840000    -1.6889140000     1.8003590000 
 H        0.5540120000     0.6441920000    -0.9153180000 
 H        0.4386460000     0.1826250000     0.7926010000 
 H        0.6201650000    -1.0662020000    -0.4527100000 
 H        2.7484950000     0.3757040000    -2.1634730000 
 H        2.7964410000    -1.3324260000    -1.6903780000 
 H        4.1727210000    -0.2740860000    -1.3311890000 
 H        2.4816490000     2.1890120000    -0.4408600000 
 H        3.8199550000     1.1885840000     2.1290030000 
 H        3.6866320000     2.9354490000     1.5186970000 
 H        3.6108100000    -2.3906520000     2.5297420000 
*
