! RI PBE def2-SVP def2-SVP/J NBO PAL2
% maxcore 2000
% output
    # printlevel mini
    print[ P_Basis ] 0
    print[ P_SCFInfo ] 1
    print[ P_SCFIterInfo ] 1
    print[ P_OrbEn ] 0
    print[ P_Cartesian ] 0
end
*xyz 0 1
 C        0.7335650000     0.1361430000    -0.0460390000 
 C        2.2384800000     0.3891730000    -0.0873750000 
 C        2.6105280000     0.9596460000    -1.4541560000 
 C        2.6127250000     1.3867160000     1.0049280000 
 C        2.9531740000    -0.9571420000     0.1563350000 
 C        4.4446970000    -0.9178280000     0.1225900000 
 C        5.2354430000    -1.2155870000     1.1449520000 
 H        0.1781770000     1.0658690000    -0.1979910000 
 H        0.4303420000    -0.2809340000     0.9186540000 
 H        0.4294680000    -0.5676590000    -0.8264230000 
 H        2.0454020000     1.8746160000    -1.6525800000 
 H        2.3843850000     0.2489230000    -2.2548330000 
 H        3.6719880000     1.2113270000    -1.5136670000 
 H        2.0964780000     2.3386180000     0.8518610000 
 H        3.6876200000     1.5813250000     1.0155870000 
 H        2.3330250000     1.0091250000     1.9928660000 
 H        2.6012740000    -1.6625660000    -0.6082450000 
 H        2.6273680000    -1.3547450000     1.1238450000 
 H        4.9039400000    -0.6342080000    -0.8223990000 
 H        4.8284990000    -1.5113640000     2.1074920000 
 H        6.3155210000    -1.1804400000     1.0585070000 
*
