! RI PBE def2-SVP def2-SVP/J NBO PAL2
% maxcore 2000
% output
    # printlevel mini
    print[ P_Basis ] 0
    print[ P_SCFInfo ] 1
    print[ P_SCFIterInfo ] 1
    print[ P_OrbEn ] 0
    print[ P_Cartesian ] 0
end
*xyz 0 1
 C        0.8892580000    -0.1923850000    -0.0630990000 
 C        2.3960290000     0.0421370000    -0.0131040000 
 C        2.7988510000     1.0333170000    -1.1000010000 
 C        2.7870050000     0.5855980000     1.3572390000 
 C        3.0897910000    -1.3160180000    -0.2572240000 
 C        4.5421500000    -1.2717550000    -0.2421810000 
 C        5.7425330000    -1.2309370000    -0.2289730000 
 H        0.3477020000     0.7420820000     0.1045660000 
 H        0.5732090000    -0.9041810000     0.7050930000 
 H        0.5815970000    -0.5869450000    -1.0358920000 
 H        2.3045440000     1.9955740000    -0.9424370000 
 H        2.5144000000     0.6684960000    -2.0913080000 
 H        3.8781940000     1.2008820000    -1.0987830000 
 H        2.2925510000     1.5424280000     1.5445760000 
 H        3.8660260000     0.7409930000     1.4252680000 
 H        2.4939410000    -0.1049240000     2.1534740000 
 H        2.7600160000    -1.7149570000    -1.2236250000 
 H        2.7517140000    -2.0295970000     0.5032650000 
 H        6.8062000000    -1.2006000000    -0.2183550000 
*
