! RI PBE def2-SVP def2-SVP/J NBO PAL2
% maxcore 2000
% output
    # printlevel mini
    print[ P_Basis ] 0
    print[ P_SCFInfo ] 1
    print[ P_SCFIterInfo ] 1
    print[ P_OrbEn ] 0
    print[ P_Cartesian ] 0
end
*xyz 0 1
 C        1.0309450000     0.0750000000    -0.0426440000 
 C        2.5704940000     0.0784560000    -0.0379050000 
 C        3.0891800000     0.9293210000     1.1356560000 
 C        3.0599270000    -1.2974900000     0.1048050000 
 C        3.4436430000    -2.4246110000     0.2514330000 
 C        3.0598820000     0.6418900000    -1.3013050000 
 C        3.4438050000     1.1317880000    -2.3268500000 
 H        0.6621430000    -0.3434960000     0.8953890000 
 H        0.6499790000    -0.5243600000    -0.8693490000 
 H        0.6621630000     1.0966610000    -0.1487410000 
 H        2.7276950000     0.5138480000     2.0778650000 
 H        2.7276960000     1.9540190000     1.0337550000 
 H        4.1788830000     0.9403670000     1.1509000000 
 H        3.7893120000    -3.4239000000     0.3723390000 
 H        3.7893530000     1.5572170000    -3.2391500000 
*
