! RI PBE def2-SVP def2-SVP/J NBO PAL2
% maxcore 2000
% output
    # printlevel mini
    print[ P_Basis ] 0
    print[ P_SCFInfo ] 1
    print[ P_SCFIterInfo ] 1
    print[ P_OrbEn ] 0
    print[ P_Cartesian ] 0
end
*xyz 0 1
 C        0.7573350000     0.0557880000     0.2178350000 
 C        2.2751220000    -0.0139330000     0.0590190000 
 C        2.9679950000     0.2321980000     1.3980800000 
 C        2.6859180000    -1.3315310000    -0.5135200000 
 C        3.3197230000    -1.5119410000    -1.6741380000 
 C        3.7029030000    -2.8059830000    -2.1985490000 
 C        4.3358630000    -2.9939110000    -3.3564750000 
 H        0.4544540000     1.0208180000     0.6328270000 
 H        0.4031700000    -0.7248500000     0.8981010000 
 H        0.2512350000    -0.0799050000    -0.7401170000 
 H        2.5860950000     0.7707000000    -0.6407400000 
 H        2.6963220000    -0.5418490000     2.1223980000 
 H        2.6718080000     1.1977670000     1.8166360000 
 H        4.0545310000     0.2235870000     1.2904290000 
 H        2.4358400000    -2.2082950000     0.0862470000 
 H        3.5743450000    -0.6438490000    -2.2810920000 
 H        3.4454700000    -3.6687560000    -1.5871160000 
 H        4.6083430000    -2.1573740000    -3.9921860000 
 H        4.6008050000    -3.9845710000    -3.7047380000 
*
