! RI PBE def2-SVP def2-SVP/J NBO PAL2
% maxcore 2000
% output
    # printlevel mini
    print[ P_Basis ] 0
    print[ P_SCFInfo ] 1
    print[ P_SCFIterInfo ] 1
    print[ P_OrbEn ] 0
    print[ P_Cartesian ] 0
end
*xyz 0 1
 C        0.7327990000    -0.0404060000    -0.2105270000 
 C        2.2552240000    -0.0507920000    -0.0831700000 
 C        2.9009640000     0.6749500000    -1.2622880000 
 C        2.6772280000     0.5683730000     1.2080830000 
 C        3.3517350000    -0.0623700000     2.1723620000 
 C        3.7461120000     0.5379550000     3.3942220000 
 C        4.0953650000     1.0180270000     4.4414310000 
 H        0.4221220000    -0.4997100000    -1.1524800000 
 H        0.3497100000     0.9843480000    -0.1974220000 
 H        0.2611000000    -0.5856620000     0.6093500000 
 H        2.5967190000    -1.0925680000    -0.0877060000 
 H        2.5940760000     1.7248520000    -1.2863710000 
 H        2.5983320000     0.2181080000    -2.2080470000 
 H        3.9905510000     0.6450280000    -1.1997150000 
 H        2.4057510000     1.6126470000     1.3566110000 
 H        3.6293740000    -1.1059540000     2.0368690000 
 H        4.3997370000     1.4505750000     5.3646890000 
*
