! RI PBE def2-SVP def2-SVP/J NBO PAL2
% maxcore 2000
% output
    # printlevel mini
    print[ P_Basis ] 0
    print[ P_SCFInfo ] 1
    print[ P_SCFIterInfo ] 1
    print[ P_OrbEn ] 0
    print[ P_Cartesian ] 0
end
*xyz 0 1
 C        1.2616660000     0.1292050000     0.6279630000 
 C        2.6203960000    -0.0701780000    -0.0485090000 
 C        3.2085120000    -1.4186730000     0.3388150000 
 C        2.5067510000     0.1430500000    -1.5404060000 
 C        2.4917190000    -0.8642340000    -2.4195940000 
 C        2.3962690000     1.5098710000    -2.0519050000 
 C        2.4710900000     2.6400890000    -1.3509730000 
 H        1.3611680000     0.0744490000     1.7152400000 
 H        0.5664920000    -0.6535360000     0.3125860000 
 H        0.8173200000     1.0925350000     0.3736840000 
 H        3.2993840000     0.7029950000     0.3314030000 
 H        2.5404610000    -2.2405150000     0.0672060000 
 H        3.3559010000    -1.4665540000     1.4203280000 
 H        4.1728970000    -1.5917780000    -0.1438210000 
 H        2.5890800000    -1.8999720000    -2.1207240000 
 H        2.3832250000    -0.6705090000    -3.4812140000 
 H        2.2508950000     1.5806630000    -3.1277900000 
 H        2.6180940000     2.6537370000    -0.2771990000 
 H        2.3898780000     3.6025660000    -1.8413900000 
*
