! RI PBE def2-SVP def2-SVP/J NBO PAL2
% maxcore 2000
% output
    # printlevel mini
    print[ P_Basis ] 0
    print[ P_SCFInfo ] 1
    print[ P_SCFIterInfo ] 1
    print[ P_OrbEn ] 0
    print[ P_Cartesian ] 0
end
*xyz 0 1
 C        0.9723620000    -0.0129080000    -0.3197690000 
 C        2.4821860000     0.0415620000    -0.1086400000 
 C        3.1993250000    -0.9491360000    -1.0203490000 
 C        3.0112460000     1.4462100000    -0.3035890000 
 C        3.6071060000     2.1327420000     0.6743170000 
 C        2.8484220000     2.0252150000    -1.5975700000 
 C        2.6942530000     2.4820040000    -2.7003000000 
 H        0.5997030000    -1.0248420000    -0.1426480000 
 H        0.7153850000     0.2673830000    -1.3444250000 
 H        0.4515780000     0.6675800000     0.3573260000 
 H        2.6971320000    -0.2254980000     0.9316150000 
 H        3.0244970000    -0.7035280000    -2.0708910000 
 H        2.8313970000    -1.9630330000    -0.8445700000 
 H        4.2774810000    -0.9407880000    -0.8463990000 
 H        3.7325990000     1.6955500000     1.6585240000 
 H        3.9796870000     3.1370890000     0.5160650000 
 H        2.5653320000     2.8998880000    -3.6705860000 
*
