! RI PBE def2-SVP def2-SVP/J NBO PAL2
% maxcore 2000
% output
    # printlevel mini
    print[ P_Basis ] 0
    print[ P_SCFInfo ] 1
    print[ P_SCFIterInfo ] 1
    print[ P_OrbEn ] 0
    print[ P_Cartesian ] 0
end
*xyz 0 1
 C        3.2388150000    -0.0077310000    -1.3501430000 
 C        2.6304420000    -0.3185740000     0.0097140000 
 C        2.8307940000    -1.7879290000     0.3612440000 
 C        3.1481000000     0.6568320000     1.0906910000 
 C        2.3338220000     0.5649150000     2.3798360000 
 C        4.6050690000     0.4805470000     1.3883470000 
 C        5.5544950000     1.3684800000     1.1265490000 
 H        2.8222260000    -0.6591700000    -2.1227500000 
 H        4.3224570000    -0.1530550000    -1.3362700000 
 H        3.0471680000     1.0277750000    -1.6447280000 
 H        1.5493930000    -0.1383110000    -0.0577200000 
 H        3.8922880000    -2.0499030000     0.3818410000 
 H        2.3549730000    -2.4249450000    -0.3885560000 
 H        2.3996280000    -2.0455430000     1.3311330000 
 H        3.0161540000     1.6668590000     0.6827070000 
 H        2.4804000000    -0.3951840000     2.8811820000 
 H        1.2654270000     0.6769320000     2.1755390000 
 H        2.6304660000     1.3476180000     3.0811710000 
 H        4.8830040000    -0.4515990000     1.8785990000 
 H        5.3265780000     2.3163200000     0.6476860000 
 H        6.5919900000     1.1849550000     1.3823090000 
*
