! RI PBE def2-SVP def2-SVP/J NBO PAL2
% maxcore 2000
% output
    # printlevel mini
    print[ P_Basis ] 0
    print[ P_SCFInfo ] 1
    print[ P_SCFIterInfo ] 1
    print[ P_OrbEn ] 0
    print[ P_Cartesian ] 0
end
*xyz 0 1
 C        0.9116020000     0.0588480000    -0.0474740000 
 C        2.4227920000     0.1607190000     0.0947140000 
 C        2.8497380000     1.6016340000     0.3319280000 
 C        2.9436980000    -0.8074460000     1.1806880000 
 C        4.4692410000    -0.9163200000     1.2005780000 
 C        2.4344730000    -0.4709200000     2.5059550000 
 C        2.0305590000    -0.1892310000     3.6019000000 
 H        0.5552470000     0.6902380000    -0.8648900000 
 H        0.4135760000     0.3834170000     0.8701330000 
 H        0.5971280000    -0.9677860000    -0.2540460000 
 H        2.8780750000    -0.1832370000    -0.8427990000 
 H        2.4531250000     1.9697100000     1.2820270000 
 H        2.4692080000     2.2469540000    -0.4634350000 
 H        3.9356980000     1.7130970000     0.3537250000 
 H        2.5441180000    -1.7989030000     0.9296260000 
 H        4.9300890000     0.0244590000     1.5048450000 
 H        4.8405410000    -1.1788290000     0.2067710000 
 H        4.7913630000    -1.6865610000     1.9029520000 
 H        1.6717200000     0.0540580000     4.5737820000 
*
