! RI PBE def2-SVP def2-SVP/J NBO PAL2
% maxcore 2000
% output
    # printlevel mini
    print[ P_Basis ] 0
    print[ P_SCFInfo ] 1
    print[ P_SCFIterInfo ] 1
    print[ P_OrbEn ] 0
    print[ P_Cartesian ] 0
end
*xyz 0 1
 C        0.9073930000    -0.0338320000     0.0306780000 
 C        2.4356830000     0.0216650000     0.0436140000 
 C        3.0055710000     0.0684820000    -1.3743690000 
 C        2.9125400000     1.1463610000     0.8389950000 
 C        3.2923940000     2.0844500000     1.4963290000 
 C        3.7729330000     3.1914030000     2.2403910000 
 C        3.2476570000     3.6220300000     3.3875170000 
 H        0.5668780000    -0.9076720000    -0.5301060000 
 H        0.4964950000     0.8601540000    -0.4438410000 
 H        0.5065930000    -0.0942920000     1.0436180000 
 H        2.8021740000    -0.8944670000     0.5254720000 
 H        2.6609550000     0.9647010000    -1.8952970000 
 H        2.6775350000    -0.8057320000    -1.9418800000 
 H        4.0964540000     0.0827750000    -1.3607720000 
 H        4.6333500000     3.7093420000     1.8224680000 
 H        2.3908870000     3.1335770000     3.8362280000 
 H        3.6678080000     4.4770540000     3.9025650000 
*
