! RI PBE def2-SVP def2-SVP/J NBO PAL2
% maxcore 2000
% output
    # printlevel mini
    print[ P_Basis ] 0
    print[ P_SCFInfo ] 1
    print[ P_SCFIterInfo ] 1
    print[ P_OrbEn ] 0
    print[ P_Cartesian ] 0
end
*xyz 0 1
 C        0.9267850000     0.0830850000     0.0694830000 
 C        2.4556370000     0.0716560000     0.0103560000 
 C        2.9912930000    -1.2913780000    -0.4326030000 
 C        2.9504820000     1.1310600000    -0.8549340000 
 C        3.3535600000     2.0041350000    -1.5874170000 
 C        3.8105000000     2.9910130000    -2.4099060000 
 C        4.2143250000     3.8635940000    -3.1377630000 
 H        0.5748060000    -0.6871360000     0.7595880000 
 H        0.5045120000    -0.1198650000    -0.9170020000 
 H        0.5514670000     1.0497540000     0.4080360000 
 H        2.8369520000     0.2758050000     1.0194110000 
 H        2.6319280000    -1.5361960000    -1.4343900000 
 H        2.6486590000    -2.0678310000     0.2552170000 
 H        4.0819450000    -1.3007010000    -0.4505550000 
 H        4.5707490000     4.6336050000    -3.7797220000 
*
