! RI PBE def2-SVP def2-SVP/J NBO PAL2
% maxcore 2000
% output
    # printlevel mini
    print[ P_Basis ] 0
    print[ P_SCFInfo ] 1
    print[ P_SCFIterInfo ] 1
    print[ P_OrbEn ] 0
    print[ P_Cartesian ] 0
end
*xyz 0 1
 C        1.9501210000    -0.6733460000    -1.1465800000 
 C        3.4186720000    -0.9320640000    -0.8416110000 
 C        4.2466500000    -0.9463790000    -2.1174420000 
 C        3.9393240000     0.1078720000     0.1589640000 
 C        5.3536350000    -0.0963510000     0.6209750000 
 C        5.6399470000    -1.3589340000     1.3734150000 
 C        6.3013720000     0.8074690000     0.3890280000 
 H        1.5505980000    -1.4230900000    -1.8342660000 
 H        1.8188580000     0.3078810000    -1.6139960000 
 H        1.3428360000    -0.6927830000    -0.2376440000 
 H        3.4926750000    -1.9218790000    -0.3741620000 
 H        4.1845110000     0.0206040000    -2.6274620000 
 H        3.8867910000    -1.7113650000    -2.8102320000 
 H        5.3015760000    -1.1408430000    -1.9121560000 
 H        3.2794370000     0.0955290000     1.0368050000 
 H        3.8460660000     1.1033000000    -0.2893730000 
 H        4.9744300000    -1.4559950000     2.2378980000 
 H        6.6710990000    -1.3875660000     1.7275800000 
 H        5.4715630000    -2.2424930000     0.7496150000 
 H        6.0886290000     1.7221630000    -0.1538930000 
 H        7.3193280000     0.6654690000     0.7364390000 
*
