! RI PBE def2-SVP def2-SVP/J NBO PAL2
% maxcore 2000
% output
    # printlevel mini
    print[ P_Basis ] 0
    print[ P_SCFInfo ] 1
    print[ P_SCFIterInfo ] 1
    print[ P_OrbEn ] 0
    print[ P_Cartesian ] 0
end
*xyz 0 1
 C        4.1975360000    -1.7984050000     0.0198530000 
 C        3.4690960000    -0.5784940000    -0.5280540000 
 C        2.1439300000    -0.9880640000    -1.1564480000 
 C        3.2413590000     0.4932500000     0.5365340000 
 C        4.5155270000     1.1127840000     1.1067390000 
 C        4.2326950000     2.1684370000     2.1229890000 
 C        4.6032460000     3.4382490000     2.0339280000 
 H        4.3314490000    -2.5540240000    -0.7585180000 
 H        3.6236110000    -2.2579470000     0.8315530000 
 H        5.1871620000    -1.5504020000     0.4091010000 
 H        4.0936290000    -0.1358670000    -1.3161640000 
 H        1.4811260000    -1.4330870000    -0.4072180000 
 H        2.2912800000    -1.7276470000    -1.9477600000 
 H        1.6249900000    -0.1295250000    -1.5905000000 
 H        2.6487980000     0.0614810000     1.3541230000 
 H        2.6281810000     1.2941610000     0.1086060000 
 H        5.1168270000     1.5366150000     0.2950290000 
 H        5.1233190000     0.3286620000     1.5736030000 
 H        3.6646090000     1.8474220000     2.9955820000 
 H        5.1682950000     3.8040560000     1.1816380000 
 H        4.3601350000     4.1575360000     2.8075020000 
*
