! RI PBE def2-SVP def2-SVP/J NBO PAL2
% maxcore 2000
% output
    # printlevel mini
    print[ P_Basis ] 0
    print[ P_SCFInfo ] 1
    print[ P_SCFIterInfo ] 1
    print[ P_OrbEn ] 0
    print[ P_Cartesian ] 0
end
*xyz 0 1
 C        0.9926420000    -0.3521850000    -0.1029940000 
 C        2.4791420000    -0.0285500000    -0.1652590000 
 C        2.8980510000     0.2804840000    -1.5968430000 
 C        2.8093650000     1.1080290000     0.7986580000 
 C        4.3058320000     1.3944340000     0.9381480000 
 C        4.5939100000     2.4146050000     1.9320100000 
 C        4.8109120000     3.2589720000     2.7578220000 
 H        0.7418370000    -1.1891890000    -0.7595020000 
 H        0.3952180000     0.5084170000    -0.4204930000 
 H        0.6829570000    -0.6154980000     0.9115670000 
 H        3.0324950000    -0.9179000000     0.1666400000 
 H        2.3942090000     1.1822900000    -1.9600380000 
 H        2.6291470000    -0.5402810000    -2.2664570000 
 H        3.9746760000     0.4384600000    -1.6910040000 
 H        2.4101080000     0.8674050000     1.7886940000 
 H        2.2986560000     2.0220770000     0.4748460000 
 H        4.7245120000     1.7126230000    -0.0217010000 
 H        4.8312490000     0.4720270000     1.2125980000 
 H        5.0082820000     4.0066690000     3.4887090000 
*
