! RI PBE def2-SVP def2-SVP/J NBO PAL2
% maxcore 2000
% output
    # printlevel mini
    print[ P_Basis ] 0
    print[ P_SCFInfo ] 1
    print[ P_SCFIterInfo ] 1
    print[ P_OrbEn ] 0
    print[ P_Cartesian ] 0
end
*xyz 0 1
 C        1.1910880000     0.0708800000     0.4453900000 
 C        2.6619000000    -0.0886870000     0.0282320000 
 C        2.9467100000    -1.4875160000    -0.2619570000 
 C        3.1549730000    -2.6501100000    -0.4778160000 
 C        3.0381440000     0.8560330000    -1.0994840000 
 C        2.9851210000     2.3125430000    -0.7556440000 
 C        3.3961370000     0.4294440000    -2.3043880000 
 H        0.9576490000    -0.6018380000     1.2715850000 
 H        0.5341200000    -0.1701920000    -0.3920320000 
 H        0.9858040000     1.0924050000     0.7682070000 
 H        3.2794220000     0.1906540000     0.8941450000 
 H        3.3466760000    -3.6793020000    -0.6691030000 
 H        3.5908570000     2.5287810000     0.1309160000 
 H        1.9663910000     2.6408420000    -0.5299060000 
 H        3.3572510000     2.9212240000    -1.5800630000 
 H        3.4440000000    -0.6267090000    -2.5405610000 
 H        3.6565470000     1.1327170000    -3.0876080000 
*
