! RI PBE def2-SVP def2-SVP/J NBO PAL2
% maxcore 2000
% output
    # printlevel mini
    print[ P_Basis ] 0
    print[ P_SCFInfo ] 1
    print[ P_SCFIterInfo ] 1
    print[ P_OrbEn ] 0
    print[ P_Cartesian ] 0
end
*xyz 0 1
 C        0.9973600000     0.1755230000     0.2184460000 
 C        2.4918950000     0.2808940000    -0.0695190000 
 C        2.8263430000    -0.2163700000    -1.4874980000 
 C        2.5461850000    -1.6677710000    -1.6903630000 
 C        1.7279580000    -2.1729080000    -2.6031090000 
 C        2.9653970000     1.6890980000     0.1072890000 
 C        3.8808820000     2.0894100000     0.9780770000 
 H        0.6409600000    -0.8465680000     0.0737650000 
 H        0.4282000000     0.8236780000    -0.4554300000 
 H        0.7748600000     0.4802540000     1.2429540000 
 H        3.0331640000    -0.3508670000     0.6459210000 
 H        3.8911980000    -0.0288660000    -1.6694320000 
 H        2.2694770000     0.3757470000    -2.2225680000 
 H        3.0718570000    -2.3495200000    -1.0222840000 
 H        1.1817540000    -1.5327870000    -3.2894980000 
 H        1.5774370000    -3.2417740000    -2.7027120000 
 H        2.4989270000     2.4260830000    -0.5471610000 
 H        4.3674780000     1.3884920000     1.6500480000 
 H        4.1775670000     3.1291640000     1.0545840000 
*
