! RI PBE def2-SVP def2-SVP/J NBO PAL2
% maxcore 2000
% output
    # printlevel mini
    print[ P_Basis ] 0
    print[ P_SCFInfo ] 1
    print[ P_SCFIterInfo ] 1
    print[ P_OrbEn ] 0
    print[ P_Cartesian ] 0
end
*xyz 0 1
 C        0.8858640000     0.1355770000    -0.2187930000 
 C        2.3928450000    -0.0315300000    -0.0313420000 
 C        2.7537130000    -0.4712880000     1.4015060000 
 C        2.4147710000     0.5573130000     2.4275960000 
 C        1.6126390000     0.3679310000     3.4657680000 
 C        2.9398660000    -0.9709930000    -1.0021640000 
 C        3.3814580000    -1.7603930000    -1.7924170000 
 H        0.4927560000     0.8552800000     0.5015200000 
 H        0.3752250000    -0.8177680000    -0.0643680000 
 H        0.6553880000     0.4841760000    -1.2264280000 
 H        2.8723040000     0.9400050000    -0.2104460000 
 H        3.8300400000    -0.6727270000     1.4317860000 
 H        2.2461680000    -1.4141630000     1.6261040000 
 H        2.8827460000     1.5326260000     2.2959660000 
 H        1.1243890000    -0.5866580000     3.6370270000 
 H        1.4193310000     1.1551760000     4.1853160000 
 H        3.7747080000    -2.4553750000    -2.4958420000 
*
