! RI PBE def2-SVP def2-SVP/J NBO PAL2
% maxcore 2000
% output
    # printlevel mini
    print[ P_Basis ] 0
    print[ P_SCFInfo ] 1
    print[ P_SCFIterInfo ] 1
    print[ P_OrbEn ] 0
    print[ P_Cartesian ] 0
end
*xyz 0 1
 C        0.9358340000    -0.1376470000    -0.1310850000 
 C        2.4485640000    -0.0090560000     0.0073310000 
 C        2.8893670000     1.4677410000    -0.0256610000 
 C        2.5602900000     2.1435510000    -1.2687730000 
 C        2.2916910000     2.6863190000    -2.3058100000 
 C        2.9261950000    -0.6451330000     1.2746720000 
 C        3.7817180000    -1.6544020000     1.3488480000 
 H        0.5874340000     0.3475260000    -1.0451320000 
 H        0.4275260000     0.3332550000     0.7161560000 
 H        0.6379350000    -1.1873590000    -0.1586030000 
 H        2.9267690000    -0.5168720000    -0.8370810000 
 H        3.9704410000     1.5238050000     0.1359640000 
 H        2.4216990000     2.0023790000     0.8100270000 
 H        2.0561250000     3.1736440000    -3.2220390000 
 H        2.5166320000    -0.2275450000     2.1948730000 
 H        4.2097730000    -2.1001010000     0.4558750000 
 H        4.0838970000    -2.0748950000     2.3010450000 
*
