! RI PBE def2-SVP def2-SVP/J NBO PAL2
% maxcore 2000
% output
    # printlevel mini
    print[ P_Basis ] 0
    print[ P_SCFInfo ] 1
    print[ P_SCFIterInfo ] 1
    print[ P_OrbEn ] 0
    print[ P_Cartesian ] 0
end
*xyz 0 1
 C        0.9888750000    -0.0118790000    -0.0160920000 
 C        2.5146570000     0.0275990000    -0.0888680000 
 C        2.9788550000     0.2261370000    -1.5455510000 
 C        4.4126960000     0.0960610000    -1.7298230000 
 C        5.5973360000    -0.0279080000    -1.8757640000 
 C        3.0522540000     1.0623020000     0.7847150000 
 C        3.4701490000     1.9297980000     1.5014250000 
 H        0.5997870000    -0.8266750000    -0.6312270000 
 H        0.5618100000     0.9273380000    -0.3746320000 
 H        0.6548720000    -0.1635990000     1.0107750000 
 H        2.9083740000    -0.9363380000     0.2534450000 
 H        2.6513230000     1.2119680000    -1.8915080000 
 H        2.4690090000    -0.5148590000    -2.1704280000 
 H        6.6489150000    -0.1298600000    -2.0028160000 
 H        3.8519000000     2.6939250000     2.1361390000 
*
