! RI PBE def2-SVP def2-SVP/J NBO PAL2
% maxcore 2000
% output
    # printlevel mini
    print[ P_Basis ] 0
    print[ P_SCFInfo ] 1
    print[ P_SCFIterInfo ] 1
    print[ P_OrbEn ] 0
    print[ P_Cartesian ] 0
end
*xyz 0 1
 C        0.9692200000     0.0993720000    -0.0943880000 
 C        2.4174060000     0.1061470000    -0.0302350000 
 C        3.6226240000     0.1111730000     0.0285020000 
 C        5.0394310000     0.1209700000     0.0423130000 
 C        5.8083940000     0.0476730000     1.1393660000 
 C        5.2453710000    -0.0558150000     2.5164410000 
 C        7.2976820000     0.0664810000     1.0350420000 
 H        0.5417260000     0.8746700000     0.5473540000 
 H        0.5635230000    -0.8630060000     0.2299080000 
 H        0.6220100000     0.2812540000    -1.1147080000 
 H        5.5246280000     0.1947140000    -0.9283140000 
 H        4.1557950000    -0.0646970000     2.5085260000 
 H        5.5848440000     0.7827110000     3.1342800000 
 H        5.6000950000    -0.9677500000     3.0090060000 
 H        7.6333140000     0.1439770000     0.0000430000 
 H        7.7293530000    -0.8413070000     1.4708580000 
 H        7.7161750000     0.9083440000     1.5976060000 
*
