! RI PBE def2-SVP def2-SVP/J NBO PAL2
% maxcore 2000
% output
    # printlevel mini
    print[ P_Basis ] 0
    print[ P_SCFInfo ] 1
    print[ P_SCFIterInfo ] 1
    print[ P_OrbEn ] 0
    print[ P_Cartesian ] 0
end
*xyz 0 1
 C        0.9619990000    -0.0402020000    -0.0965760000 
 C        2.4091500000     0.0027940000    -0.0996420000 
 C        3.6149530000     0.0459550000    -0.0936200000 
 C        5.0250900000     0.0643960000    -0.1232540000 
 C        5.7856700000     0.8081560000     0.6992850000 
 C        7.1968440000     0.8185270000     0.6603470000 
 C        8.4007460000     0.8509850000     0.6540920000 
 H        0.5843870000    -0.4041860000     0.8628030000 
 H        0.5872260000    -0.7025540000    -0.8805730000 
 H        0.5414430000     0.9549480000    -0.2644830000 
 H        5.5117230000    -0.5668370000    -0.8620630000 
 H        5.3083740000     1.4420930000     1.4408740000 
 H        9.4646160000     0.8738050000     0.6418500000 
*
