! RI PBE def2-SVP def2-SVP/J NBO PAL2
% maxcore 2000
% output
    # printlevel mini
    print[ P_Basis ] 0
    print[ P_SCFInfo ] 1
    print[ P_SCFIterInfo ] 1
    print[ P_OrbEn ] 0
    print[ P_Cartesian ] 0
end
*xyz 0 1
 C        0.9816790000     0.1077870000     0.0809200000 
 C        2.4306030000     0.0789350000     0.0818440000 
 C        3.6345430000     0.0390620000     0.0840000000 
 C        5.0615280000     0.0170690000     0.0851570000 
 C        5.7333220000    -1.1434580000     0.1431320000 
 C        5.7794220000     1.2920270000     0.0214710000 
 C        5.2080950000     2.4910510000    -0.0377350000 
 H        0.5843620000    -0.2015370000     1.0513130000 
 H        0.5778480000    -0.5684970000    -0.6769750000 
 H        0.6078920000     1.1125490000    -0.1306560000 
 H        5.2180880000    -2.0936720000     0.1907290000 
 H        6.8171420000    -1.1520530000     0.1434500000 
 H        6.8630310000     1.2081620000     0.0251380000 
 H        4.1289450000     2.5980410000    -0.0423560000 
 H        5.8043890000     3.3940150000    -0.0828240000 
*
