! RI PBE def2-SVP def2-SVP/J NBO PAL2
% maxcore 2000
% output
    # printlevel mini
    print[ P_Basis ] 0
    print[ P_SCFInfo ] 1
    print[ P_SCFIterInfo ] 1
    print[ P_OrbEn ] 0
    print[ P_Cartesian ] 0
end
*xyz 0 1
 C        0.9813800000    -0.0117570000    -0.1332080000 
 C        2.4287390000     0.0145380000    -0.0918250000 
 C        3.6319140000     0.0383720000    -0.0548460000 
 C        5.0588860000     0.0469050000    -0.0335500000 
 C        5.7583210000     0.7977420000     0.8312210000 
 C        5.7182890000    -0.7906280000    -0.9864590000 
 C        6.2590450000    -1.4990620000    -1.7925610000 
 H        0.6266300000    -0.6666100000    -0.9326610000 
 H        0.5771170000     0.9882570000    -0.3103430000 
 H        0.5700520000    -0.3774910000     0.8112270000 
 H        5.2505460000     1.4285670000     1.5489220000 
 H        6.8402470000     0.7839380000     0.8241670000 
 H        6.7412240000    -2.1253710000    -2.5051840000 
*
