! RI PBE def2-SVP def2-SVP/J NBO PAL2
% maxcore 2000
% output
    # printlevel mini
    print[ P_Basis ] 0
    print[ P_SCFInfo ] 1
    print[ P_SCFIterInfo ] 1
    print[ P_OrbEn ] 0
    print[ P_Cartesian ] 0
end
*xyz 0 1
 C        1.0236390000     0.0527370000    -0.0299300000 
 C        2.4737440000    -0.0013930000    -0.0538560000 
 C        3.6750900000    -0.0506690000    -0.0702820000 
 C        5.1313000000    -0.1145270000    -0.0997020000 
 C        5.7166400000     0.0506750000    -1.4830980000 
 C        5.3878750000     1.3245170000    -2.1901190000 
 C        6.4918750000    -0.8890440000    -2.0112790000 
 H        0.6704180000     1.0114300000     0.3583630000 
 H        0.6127150000    -0.7371110000     0.6040480000 
 H        0.6094600000    -0.0759440000    -1.0331850000 
 H        5.4651480000    -1.0646780000     0.3271020000 
 H        5.5291040000     0.6768860000     0.5500490000 
 H        5.7300010000     2.1895630000    -1.6115140000 
 H        4.3054140000     1.4327180000    -2.3040980000 
 H        5.8505930000     1.3643640000    -3.1766650000 
 H        6.7127640000    -1.8084360000    -1.4799980000 
 H        6.9305190000    -0.7699000000    -2.9959470000 
*
