! RI PBE def2-SVP def2-SVP/J NBO PAL2
% maxcore 2000
% output
    # printlevel mini
    print[ P_Basis ] 0
    print[ P_SCFInfo ] 1
    print[ P_SCFIterInfo ] 1
    print[ P_OrbEn ] 0
    print[ P_Cartesian ] 0
end
*xyz 0 1
 C        0.8851330000     0.1709240000    -0.0569900000 
 C        2.3314580000     0.0588030000    -0.0388730000 
 C        3.5285080000    -0.0384330000    -0.0302690000 
 C        4.9841130000    -0.1506070000    -0.0110880000 
 C        5.5267530000    -0.9538760000    -1.1028890000 
 C        5.9812040000    -1.6132340000    -1.9979740000 
 C        6.5214160000    -2.4111880000    -3.0824870000 
 H        0.4643720000    -0.3612860000    -0.9138150000 
 H        0.5723980000     1.2159040000    -0.1247660000 
 H        0.4463010000    -0.2531190000     0.8496460000 
 H        5.3008150000    -0.5813170000     0.9464820000 
 H        5.4244480000     0.8531530000    -0.0474510000 
 H        7.2018430000    -1.8225880000    -3.7029290000 
 H        5.7211620000    -2.7863450000    -3.7253560000 
 H        7.0752850000    -3.2719830000    -2.6995510000 
*
