! RI PBE def2-SVP def2-SVP/J NBO PAL2
% maxcore 2000
% output
    # printlevel mini
    print[ P_Basis ] 0
    print[ P_SCFInfo ] 1
    print[ P_SCFIterInfo ] 1
    print[ P_OrbEn ] 0
    print[ P_Cartesian ] 0
end
*xyz 0 1
 C        1.0000370000     0.0499580000     0.0564540000 
 C        2.4512730000     0.0693940000     0.0541170000 
 C        3.6539060000     0.0819210000     0.0583230000 
 C        5.1077100000     0.1105180000     0.0396400000 
 C        5.6782560000     0.7537640000    -1.2325870000 
 C        7.1696000000     0.7244230000    -1.2562720000 
 C        7.9526110000     1.7922890000    -1.3163380000 
 H        0.6204240000    -0.9642860000     0.2044960000 
 H        0.6007320000     0.4210390000    -0.8909230000 
 H        0.5993000000     0.6774480000     0.8566660000 
 H        5.4929170000    -0.9113480000     0.1338610000 
 H        5.4764730000     0.6566540000     0.9144920000 
 H        5.3191140000     1.7829790000    -1.3128090000 
 H        5.2828300000     0.2096170000    -2.0975530000 
 H        7.6287300000    -0.2627200000    -1.2123430000 
 H        7.5389920000     2.7953990000    -1.3599700000 
 H        9.0329160000     1.7051610000    -1.3292460000 
*
