! RI PBE def2-SVP def2-SVP/J NBO PAL2
% maxcore 2000
% output
    # printlevel mini
    print[ P_Basis ] 0
    print[ P_SCFInfo ] 1
    print[ P_SCFIterInfo ] 1
    print[ P_OrbEn ] 0
    print[ P_Cartesian ] 0
end
*xyz 0 1
 C        2.4827660000     0.3163200000     1.6825740000 
 C        3.0911130000    -0.3052490000     0.4278650000 
 C        3.4518260000     0.7203730000    -0.5912150000 
 C        4.6456920000     0.9737560000    -1.1502160000 
 C        5.9011320000     0.2207710000    -0.8393170000 
 C        4.7329110000     2.0513670000    -2.1310240000 
 C        5.8284130000     2.4317320000    -2.7883880000 
 H        2.1774740000    -0.4540240000     2.3944680000 
 H        1.6004890000     0.9133050000     1.4372200000 
 H        3.1992910000     0.9744290000     2.1792780000 
 H        2.3578440000    -0.9934250000    -0.0123160000 
 H        3.9544870000    -0.9151430000     0.7003000000 
 H        2.6219220000     1.3512410000    -0.9099770000 
 H        5.7508330000    -0.5476110000    -0.0835230000 
 H        6.6794260000     0.9005520000    -0.4800010000 
 H        6.2934110000    -0.2638750000    -1.7385470000 
 H        3.8001260000     2.5764810000    -2.3259020000 
 H        6.7883160000     1.9499570000    -2.6419070000 
 H        5.7957390000     3.2461530000    -3.5017820000 
*
