! RI PBE def2-SVP def2-SVP/J NBO PAL2
% maxcore 2000
% output
    # printlevel mini
    print[ P_Basis ] 0
    print[ P_SCFInfo ] 1
    print[ P_SCFIterInfo ] 1
    print[ P_OrbEn ] 0
    print[ P_Cartesian ] 0
end
*xyz 0 1
 C        1.6885810000     1.5089320000     0.0926340000 
 C        2.3909870000     0.1581150000    -0.0196350000 
 C        3.0804470000    -0.0095900000    -1.3294310000 
 C        4.3815370000    -0.2433460000    -1.5555650000 
 C        5.4431810000    -0.3987950000    -0.5051410000 
 C        4.8420890000    -0.3675680000    -2.9003760000 
 C        5.2769480000    -0.4806450000    -4.0172350000 
 H        1.1446780000     1.5896180000     1.0364390000 
 H        0.9712010000     1.6479380000    -0.7201420000 
 H        2.4080780000     2.3292120000     0.0428310000 
 H        1.6412320000    -0.6369650000     0.0813530000 
 H        3.0844600000     0.0310160000     0.8137520000 
 H        2.4409290000     0.0806320000    -2.2049480000 
 H        5.0540790000    -0.2553150000     0.5015200000 
 H        6.2480840000     0.3217180000    -0.6714370000 
 H        5.8912760000    -1.3944300000    -0.5631300000 
 H        5.6467230000    -0.5780280000    -5.0101800000 
*
