! RI PBE def2-SVP def2-SVP/J NBO PAL2
% maxcore 2000
% output
    # printlevel mini
    print[ P_Basis ] 0
    print[ P_SCFInfo ] 1
    print[ P_SCFIterInfo ] 1
    print[ P_OrbEn ] 0
    print[ P_Cartesian ] 0
end
*xyz 0 1
 C        2.2744670000     0.7540940000    -1.4374900000 
 C        3.3230050000     0.1310720000    -0.5208660000 
 C        3.1091060000     0.4729520000     0.9147530000 
 C        3.9926520000     1.1064060000     1.6886690000 
 C        3.8055710000     1.4574860000     3.0915740000 
 C        2.5164180000     1.0937580000     3.7606150000 
 C        4.7778000000     2.0925680000     3.7543140000 
 H        2.4338090000     0.4568390000    -2.4765770000 
 H        2.3096440000     1.8446970000    -1.3861170000 
 H        1.2665190000     0.4411210000    -1.1521690000 
 H        4.3248830000     0.4465490000    -0.8274420000 
 H        3.2898000000    -0.9595560000    -0.6391080000 
 H        2.1473610000     0.1817790000     1.3341000000 
 H        4.9493230000     1.3958910000     1.2563360000 
 H        2.3539740000     0.0119690000     3.7396660000 
 H        1.6646920000     1.5551330000     3.2519930000 
 H        2.5113510000     1.4202010000     4.8007370000 
 H        5.7112030000     2.3542310000     3.2678060000 
 H        4.6690120000     2.3669100000     4.7972850000 
*
