! RI PBE def2-SVP def2-SVP/J NBO PAL2
% maxcore 2000
% output
    # printlevel mini
    print[ P_Basis ] 0
    print[ P_SCFInfo ] 1
    print[ P_SCFIterInfo ] 1
    print[ P_OrbEn ] 0
    print[ P_Cartesian ] 0
end
*xyz 0 1
 C        1.9815350000    -1.7796760000    -0.1641170000 
 C        2.5429380000    -0.3650360000    -0.0543190000 
 C        3.0479530000    -0.0525370000     1.3116050000 
 C        4.3051590000     0.3004560000     1.5935670000 
 C        4.7901490000     0.5926310000     2.8928980000 
 C        5.2380400000     0.8483480000     3.9830000000 
 C        5.7650590000     1.1527440000     5.2982790000 
 H        1.5849740000    -1.9673290000    -1.1644970000 
 H        1.1706440000    -1.9377890000     0.5516800000 
 H        2.7546650000    -2.5234310000     0.0411260000 
 H        1.7513660000     0.3492850000    -0.3142290000 
 H        3.3453170000    -0.2203090000    -0.7841010000 
 H        2.3337830000    -0.1323380000     2.1289340000 
 H        5.0259780000     0.3777470000     0.7809410000 
 H        5.8690170000     0.2456970000     5.9002230000 
 H        5.1048170000     1.8370130000     5.8378580000 
 H        6.7495950000     1.6220330000     5.2275530000 
*
