! RI PBE def2-SVP def2-SVP/J NBO PAL2
% maxcore 2000
% output
    # printlevel mini
    print[ P_Basis ] 0
    print[ P_SCFInfo ] 1
    print[ P_SCFIterInfo ] 1
    print[ P_OrbEn ] 0
    print[ P_Cartesian ] 0
end
*xyz 0 1
 C        1.2532990000    -0.1114590000    -0.2269850000 
 C        2.7345870000     0.1437940000    -0.0196350000 
 C        3.1009730000     1.0427330000     1.1291270000 
 C        2.1914890000     1.5920170000     1.9297100000 
 C        4.5740590000     1.3111320000     1.3534450000 
 C        5.3516240000     0.0405230000     1.6924290000 
 C        5.2186110000     2.0383700000     0.1746050000 
 H        1.0972620000    -0.7727580000    -1.0819320000 
 H        0.7103720000     0.8164940000    -0.4208270000 
 H        0.8025860000    -0.5864330000     0.6474840000 
 H        3.1582830000     0.5648130000    -0.9393190000 
 H        3.2489900000    -0.8156970000     0.1121070000 
 H        1.1287820000     1.4251080000     1.8028590000 
 H        2.4880960000     2.2365990000     2.7505970000 
 H        4.6358150000     1.9754000000     2.2223780000 
 H        5.3935090000    -0.6454530000     0.8424400000 
 H        4.8979650000    -0.4888270000     2.5333650000 
 H        6.3817770000     0.2866220000     1.9623080000 
 H        5.2561590000     1.4070520000    -0.7169200000 
 H        6.2466990000     2.3186140000     0.4177470000 
 H        4.6695430000     2.9484640000    -0.0772630000 
*
