! RI PBE def2-SVP def2-SVP/J NBO PAL2
% maxcore 2000
% output
    # printlevel mini
    print[ P_Basis ] 0
    print[ P_SCFInfo ] 1
    print[ P_SCFIterInfo ] 1
    print[ P_OrbEn ] 0
    print[ P_Cartesian ] 0
end
*xyz 0 1
 C        1.0852790000     0.5113080000    -0.1294060000 
 C        2.5102640000     0.0375630000     0.0786930000 
 C        2.7444590000    -1.4412800000    -0.0284900000 
 C        1.7815570000    -2.3276960000    -0.2616690000 
 C        4.1792720000    -1.8784460000     0.1401900000 
 C        5.0549630000    -1.4519090000    -0.9984080000 
 C        6.1254930000    -0.6776440000    -0.8914950000 
 H        1.0250990000     1.5972740000    -0.0322510000 
 H        0.4053120000     0.0743100000     0.6059180000 
 H        0.7179580000     0.2458310000    -1.1236630000 
 H        2.8661390000     0.3613590000     1.0662220000 
 H        3.1774020000     0.5389490000    -0.6331320000 
 H        0.7473790000    -2.0345600000    -0.3963700000 
 H        2.0008710000    -3.3882500000    -0.3234060000 
 H        4.2056690000    -2.9700290000     0.2231930000 
 H        4.5840720000    -1.4709200000     1.0740210000 
 H        4.7610090000    -1.8219030000    -1.9792230000 
 H        6.4476450000    -0.2865650000     0.0690100000 
 H        6.7216580000    -0.4106830000    -1.7565370000 
*
