! RI PBE def2-SVP def2-SVP/J NBO PAL2
% maxcore 2000
% output
    # printlevel mini
    print[ P_Basis ] 0
    print[ P_SCFInfo ] 1
    print[ P_SCFIterInfo ] 1
    print[ P_OrbEn ] 0
    print[ P_Cartesian ] 0
end
*xyz 0 1
 C        2.9960810000     1.1982730000    -0.4747330000 
 C        2.4113370000    -0.0633070000     0.1525190000 
 C        2.7974960000    -0.2627990000     1.5877980000 
 C        1.9023850000    -0.3156990000     2.5673390000 
 C        4.2736140000    -0.3850780000     1.8955660000 
 C        4.9480330000    -1.4228740000     1.1286840000 
 C        5.4987290000    -2.2793920000     0.4928460000 
 H        2.6450930000     1.3125510000    -1.5024860000 
 H        4.0875250000     1.1648210000    -0.5070530000 
 H        2.6998280000     2.0899580000     0.0835220000 
 H        2.7472680000    -0.9331290000    -0.4237440000 
 H        1.3208230000    -0.0393510000     0.0841990000 
 H        0.8420920000    -0.2072790000     2.3662970000 
 H        2.1949760000    -0.4715790000     3.6001760000 
 H        4.4082000000    -0.5789860000     2.9632070000 
 H        4.7695020000     0.5717830000     1.6898230000 
 H        5.9896080000    -3.0407030000    -0.0656810000 
*
