! RI PBE def2-SVP def2-SVP/J NBO PAL2
% maxcore 2000
% output
    # printlevel mini
    print[ P_Basis ] 0
    print[ P_SCFInfo ] 1
    print[ P_SCFIterInfo ] 1
    print[ P_OrbEn ] 0
    print[ P_Cartesian ] 0
end
*xyz 0 1
 C        2.1395250000     1.4912640000    -0.3540350000 
 C        2.6158660000     0.0447190000    -0.2470780000 
 C        3.2137410000    -0.4863980000    -1.5232380000 
 C        2.3144340000    -0.8640700000    -2.6083630000 
 C        0.9818630000    -0.8850130000    -2.5570190000 
 C        4.5483430000    -0.5889950000    -1.6336620000 
 C        5.3594670000    -1.0561570000    -2.7918780000 
 H        1.6919790000     1.8245680000     0.5856180000 
 H        1.3962050000     1.6138500000    -1.1437860000 
 H        2.9766860000     2.1547980000    -0.5829940000 
 H        1.7816970000    -0.5938540000     0.0626200000 
 H        3.3648860000    -0.0275760000     0.5460560000 
 H        2.7818860000    -1.1637250000    -3.5409510000 
 H        0.4270200000    -0.6039750000    -1.6694070000 
 H        0.3984690000    -1.1935240000    -3.4161530000 
 H        5.1326680000    -0.2965890000    -0.7624580000 
 H        4.7651070000    -1.3292690000    -3.6624980000 
 H        5.9603470000    -1.9279980000    -2.5118080000 
 H        6.0684120000    -0.2803570000    -3.0997640000 
*
