! RI PBE def2-SVP def2-SVP/J NBO PAL2
% maxcore 2000
% output
    # printlevel mini
    print[ P_Basis ] 0
    print[ P_SCFInfo ] 1
    print[ P_SCFIterInfo ] 1
    print[ P_OrbEn ] 0
    print[ P_Cartesian ] 0
end
*xyz 0 1
 C        2.7503340000    -0.8722770000    -1.2649990000 
 C        2.5202380000     0.0467900000    -0.0705810000 
 C        2.9693910000     1.4619820000    -0.3289480000 
 C        2.1635670000     2.5260240000    -0.4616070000 
 C        0.6790030000     2.5584490000    -0.3833730000 
 C        4.3799850000     1.6406890000    -0.4490520000 
 C        5.5763140000     1.7436120000    -0.5382830000 
 H        2.4599970000    -1.8980580000    -1.0269380000 
 H        3.8029750000    -0.8769360000    -1.5556270000 
 H        2.1663320000    -0.5449310000    -2.1284020000 
 H        3.0769570000    -0.3361850000     0.7909670000 
 H        1.4658170000     0.0362980000     0.2097640000 
 H        2.6440450000     3.4826300000    -0.6499610000 
 H        0.2328360000     1.5793980000    -0.2136180000 
 H        0.2580990000     2.9644490000    -1.3091670000 
 H        0.3514180000     3.2254670000     0.4211340000 
 H        6.6317900000     1.8512990000    -0.6193090000 
*
