! RI PBE def2-SVP def2-SVP/J NBO PAL2
% maxcore 2000
% output
    # printlevel mini
    print[ P_Basis ] 0
    print[ P_SCFInfo ] 1
    print[ P_SCFIterInfo ] 1
    print[ P_OrbEn ] 0
    print[ P_Cartesian ] 0
end
*xyz 0 1
 C        1.2559260000     0.5505750000     0.1033510000 
 C        2.7568560000     0.4787490000    -0.1144010000 
 C        3.1901890000    -0.6627960000    -1.0506330000 
 C        2.6535950000    -0.4606290000    -2.4369250000 
 C        1.8194050000    -1.2762990000    -3.0649600000 
 C        4.6870300000    -0.7565640000    -1.0911700000 
 C        5.3990240000    -1.7934800000    -0.6747870000 
 H        0.9968480000     1.3703450000     0.7772240000 
 H        0.8795960000    -0.3756170000     0.5470480000 
 H        0.7223270000     0.7045340000    -0.8370540000 
 H        3.2676590000     0.3428980000     0.8439340000 
 H        3.1221690000     1.4280330000    -0.5241700000 
 H        2.7920340000    -1.6051230000    -0.6558800000 
 H        2.9970230000     0.4410300000    -2.9443070000 
 H        1.4557170000    -2.1857900000    -2.5965920000 
 H        1.4722980000    -1.0687370000    -4.0706640000 
 H        5.2024910000     0.1160640000    -1.4915050000 
 H        4.9235900000    -2.6831870000    -0.2731010000 
 H        6.4819220000    -1.7936170000    -0.7213180000 
*
