! RI PBE def2-SVP def2-SVP/J NBO PAL2
% maxcore 2000
% output
    # printlevel mini
    print[ P_Basis ] 0
    print[ P_SCFInfo ] 1
    print[ P_SCFIterInfo ] 1
    print[ P_OrbEn ] 0
    print[ P_Cartesian ] 0
end
*xyz 0 1
 C        2.3027060000     0.7616790000     1.1644490000 
 C        2.5827190000    -0.1132730000    -0.0546500000 
 C        3.1006010000    -1.4836790000     0.3083680000 
 C        2.0001810000    -2.4743960000     0.5527640000 
 C        4.4065590000    -1.7667060000     0.4132430000 
 C        5.4912290000    -0.7509080000     0.2022900000 
 C        4.9559340000    -3.1204540000     0.7527680000 
 H        1.8649320000     1.7199170000     0.8727880000 
 H        3.2232850000     0.9628790000     1.7174180000 
 H        1.6068900000     0.2744900000     1.8524260000 
 H        3.2724530000     0.4053950000    -0.7234700000 
 H        1.6537510000    -0.2365400000    -0.6228250000 
 H        1.2361390000    -2.0374250000     1.2043840000 
 H        2.3312200000    -3.4013120000     1.0165510000 
 H        1.4942500000    -2.7280650000    -0.3860880000 
 H        5.1229900000     0.2603900000     0.0420940000 
 H        6.1175890000    -1.0248150000    -0.6546670000 
 H        6.1574160000    -0.7259450000     1.0718510000 
 H        4.2006820000    -3.9000150000     0.8236270000 
 H        5.5017620000    -3.0905760000     1.7028950000 
 H        5.6818000000    -3.4318300000    -0.0068050000 
*
