! RI PBE def2-SVP def2-SVP/J NBO PAL2
% maxcore 2000
% output
    # printlevel mini
    print[ P_Basis ] 0
    print[ P_SCFInfo ] 1
    print[ P_SCFIterInfo ] 1
    print[ P_OrbEn ] 0
    print[ P_Cartesian ] 0
end
*xyz 0 1
 C        2.6532210000    -1.2628810000    -0.7371250000 
 C        3.0174200000     0.0774790000    -0.1028330000 
 C        2.8432210000     1.2538720000    -1.0198540000 
 C        1.4409100000     1.5297880000    -1.4616570000 
 C        3.9078930000     1.9823080000    -1.3906790000 
 C        3.9260310000     3.1337310000    -2.2666310000 
 C        5.0353390000     3.8010080000    -2.5902600000 
 H        2.8248520000    -2.0810100000    -0.0339720000 
 H        3.2592340000    -1.4494610000    -1.6270810000 
 H        1.6026110000    -1.3003390000    -1.0330120000 
 H        4.0534960000     0.0446710000     0.2448030000 
 H        2.3922540000     0.2262950000     0.7874620000 
 H        1.0684890000     0.7306590000    -2.1104460000 
 H        1.3402650000     2.4685770000    -2.0031360000 
 H        0.7708930000     1.5655600000    -0.5960240000 
 H        4.8793490000     1.6861610000    -0.9978550000 
 H        2.9822950000     3.4695190000    -2.6864530000 
 H        6.0051640000     3.5054260000    -2.2023360000 
 H        5.0093700000     4.6588460000    -3.2508940000 
*
