! RI PBE def2-SVP def2-SVP/J NBO PAL2
% maxcore 2000
% output
    # printlevel mini
    print[ P_Basis ] 0
    print[ P_SCFInfo ] 1
    print[ P_SCFIterInfo ] 1
    print[ P_OrbEn ] 0
    print[ P_Cartesian ] 0
end
*xyz 0 1
 C        2.0924350000    -1.5869890000    -0.1560370000 
 C        2.7291200000    -0.2202250000     0.0827360000 
 C        3.0860670000     0.5099150000    -1.1770160000 
 C        1.9677170000     0.8786120000    -2.0930540000 
 C        4.3663750000     0.8105950000    -1.4448060000 
 C        4.8200300000     1.4949420000    -2.5988630000 
 C        5.2440040000     2.0734760000    -3.5667340000 
 H        1.8790000000    -2.0810580000     0.7942210000 
 H        2.7602770000    -2.2332580000    -0.7305610000 
 H        1.1508730000    -1.5055790000    -0.7029640000 
 H        3.6255300000    -0.3366600000     0.6976840000 
 H        2.0300290000     0.3986260000     0.6599640000 
 H        1.4946690000    -0.0149930000    -2.5122270000 
 H        2.3135870000     1.4988020000    -2.9193290000 
 H        1.1875400000     1.4194590000    -1.5471580000 
 H        5.1354870000     0.5161140000    -0.7350000000 
 H        5.6141610000     2.5841200000    -4.4236550000 
*
