! RI PBE def2-SVP def2-SVP/J NBO PAL2
% maxcore 2000
% output
    # printlevel mini
    print[ P_Basis ] 0
    print[ P_SCFInfo ] 1
    print[ P_SCFIterInfo ] 1
    print[ P_OrbEn ] 0
    print[ P_Cartesian ] 0
end
*xyz 0 1
 C        2.8649380000    -0.8437040000    -1.3065230000 
 C        2.5129760000    -0.1022440000    -0.0278690000 
 C        3.0663260000    -0.7116870000     1.2766970000 
 C        2.5909130000     0.1649930000     2.4411910000 
 C        2.5438830000    -2.1284700000     1.4776420000 
 C        4.5696090000    -0.6497670000     1.2420690000 
 C        5.4264040000    -1.6539810000     1.3644410000 
 H        2.4861640000    -0.3059150000    -2.1788020000 
 H        2.4308820000    -1.8458740000    -1.3284150000 
 H        3.9465490000    -0.9483160000    -1.4217030000 
 H        1.4231040000    -0.0335490000     0.0699670000 
 H        2.8754260000     0.9302980000    -0.0979810000 
 H        1.4980030000     0.1886920000     2.4809220000 
 H        2.9455770000     1.1933930000     2.3298500000 
 H        2.9603660000    -0.2180690000     3.3953150000 
 H        1.4504960000    -2.1307970000     1.4701490000 
 H        2.8715540000    -2.5335520000     2.4382870000 
 H        2.8860120000    -2.8082760000     0.6949410000 
 H        4.9687510000     0.3563110000     1.1079730000 
 H        5.1019490000    -2.6797700000     1.4998910000 
 H        6.4963070000    -1.4820080000     1.3349700000 
*
