! RI PBE def2-SVP def2-SVP/J NBO PAL2
% maxcore 2000
% output
    # printlevel mini
    print[ P_Basis ] 0
    print[ P_SCFInfo ] 1
    print[ P_SCFIterInfo ] 1
    print[ P_OrbEn ] 0
    print[ P_Cartesian ] 0
end
*xyz 0 1
 C        2.8532740000    -0.1896680000     1.3899840000 
 C        2.4468040000     0.0599370000    -0.0511570000 
 C        2.9787620000     1.3644230000    -0.6805280000 
 C        2.4931060000     1.4425110000    -2.1328050000 
 C        2.4756750000     2.5916070000     0.0880240000 
 C        4.4428460000     1.3554790000    -0.6726910000 
 C        5.6444090000     1.3493840000    -0.6743460000 
 H        2.4895980000    -1.1634570000     1.7252750000 
 H        2.4427780000     0.5622140000     2.0675020000 
 H        3.9404920000    -0.1826290000     1.4970740000 
 H        1.3540750000     0.0846560000    -0.1321360000 
 H        2.7860230000    -0.7738170000    -0.6740040000 
 H        1.4000540000     1.4570190000    -2.1580000000 
 H        2.8405400000     0.5810960000    -2.7064940000 
 H        2.8619720000     2.3476270000    -2.6188110000 
 H        1.3822490000     2.5907140000     0.1133950000 
 H        2.8077070000     3.5099440000    -0.3998200000 
 H        2.8471600000     2.6038120000     1.1130660000 
 H        6.7085870000     1.3464980000    -0.6771580000 
*
