! RI PBE def2-SVP def2-SVP/J NBO PAL2
% maxcore 2000
% output
    # printlevel mini
    print[ P_Basis ] 0
    print[ P_SCFInfo ] 1
    print[ P_SCFIterInfo ] 1
    print[ P_OrbEn ] 0
    print[ P_Cartesian ] 0
end
*xyz 0 1
 C        3.3630780000    -0.1525390000     1.3495680000 
 C        2.7465750000     0.4470010000     0.0981610000 
 C        3.4451970000     0.0360690000    -1.2019530000 
 C        2.6886200000     0.5856220000    -2.4100180000 
 C        4.9033960000     0.4316290000    -1.2316080000 
 C        5.2352360000     1.8878910000    -1.1130450000 
 C        5.8587680000    -0.4839710000    -1.3654500000 
 H        2.8141830000     0.1498110000     2.2444610000 
 H        4.4038910000     0.1566150000     1.4725490000 
 H        3.3534440000    -1.2454020000     1.3064340000 
 H        2.7348440000     1.5405330000     0.1726120000 
 H        1.6962330000     0.1439940000     0.0253840000 
 H        3.4149080000    -1.0588840000    -1.2584160000 
 H        2.6282800000     1.6768260000    -2.3829230000 
 H        1.6649040000     0.2027580000    -2.4251230000 
 H        3.1731380000     0.2970850000    -3.3454370000 
 H        4.8961410000     2.2974620000    -0.1562520000 
 H        4.7477740000     2.4755830000    -1.8964240000 
 H        6.3109270000     2.0517320000    -1.1868460000 
 H        5.6224340000    -1.5398530000    -1.4464070000 
 H        6.9080410000    -0.2099830000    -1.4005780000 
*
