! RI PBE def2-SVP def2-SVP/J NBO PAL2
% maxcore 2000
% output
    # printlevel mini
    print[ P_Basis ] 0
    print[ P_SCFInfo ] 1
    print[ P_SCFIterInfo ] 1
    print[ P_OrbEn ] 0
    print[ P_Cartesian ] 0
end
*xyz 0 1
 C        2.9106540000     0.3403660000    -1.3268350000 
 C        2.5238810000    -0.0047700000     0.0991980000 
 C        3.0852340000     0.9646020000     1.1469520000 
 C        2.5570960000     0.6360730000     2.5434070000 
 C        4.5455300000     0.9833420000     1.1346080000 
 C        5.7489090000     0.9824760000     1.1361340000 
 C        7.2006170000     0.9889630000     1.1375730000 
 H        2.4889400000    -0.3773930000    -2.0340210000 
 H        3.9961250000     0.3375960000    -1.4480620000 
 H        2.5472990000     1.3339420000    -1.6050750000 
 H        2.8646930000    -1.0160030000     0.3459350000 
 H        1.4330140000    -0.0090180000     0.1991630000 
 H        2.7401990000     1.9735140000     0.8815440000 
 H        2.8703890000    -0.3662980000     2.8445400000 
 H        1.4648220000     0.6724970000     2.5548140000 
 H        2.9346430000     1.3434640000     3.2833850000 
 H        7.5892970000     1.7667010000     1.8000240000 
 H        7.5948050000     1.1766550000     0.1354570000 
 H        7.5989330000     0.0300610000     1.4790270000 
*
