! RI PBE def2-SVP def2-SVP/J NBO PAL2
% maxcore 2000
% output
    # printlevel mini
    print[ P_Basis ] 0
    print[ P_SCFInfo ] 1
    print[ P_SCFIterInfo ] 1
    print[ P_OrbEn ] 0
    print[ P_Cartesian ] 0
end
*xyz 0 1
 C        3.0374320000     0.1413760000     1.3358960000 
 C        2.5258200000     0.2714670000    -0.0891530000 
 C        2.9568660000    -0.8497360000    -1.0311900000 
 C        2.3071250000    -0.6914230000    -2.3972210000 
 C        4.4860080000    -0.9639020000    -1.1589170000 
 C        5.1282770000     0.2341920000    -1.6756720000 
 C        5.6517510000     1.2284340000    -2.1002820000 
 H        2.6118500000     0.9183210000     1.9749160000 
 H        4.1240000000     0.2416420000     1.3898890000 
 H        2.7675920000    -0.8263340000     1.7698280000 
 H        2.8502510000     1.2293530000    -0.5112030000 
 H        1.4307860000     0.2977490000    -0.0788850000 
 H        2.6227380000    -1.8010760000    -0.5968950000 
 H        2.6392810000     0.2331650000    -2.8770690000 
 H        1.2185840000    -0.6533590000    -2.3090640000 
 H        2.5619740000    -1.5221730000    -3.0606840000 
 H        4.7256770000    -1.8043460000    -1.8195080000 
 H        4.9241240000    -1.2059210000    -0.1856400000 
 H        6.1221550000     2.1051620000    -2.4777460000 
*
