! RI PBE def2-SVP def2-SVP/J NBO PAL2
% maxcore 2000
% output
    # printlevel mini
    print[ P_Basis ] 0
    print[ P_SCFInfo ] 1
    print[ P_SCFIterInfo ] 1
    print[ P_OrbEn ] 0
    print[ P_Cartesian ] 0
end
*xyz 0 1
 C        2.0864700000     0.2529360000    -1.2329060000 
 C        2.5887510000     0.0320950000     0.1915230000 
 C        3.2935130000     1.2293490000     0.7706100000 
 C        2.4113280000     2.3768700000     1.1829970000 
 C        1.8450830000     2.2035500000     2.5907530000 
 C        4.6202650000     1.2272680000     0.9116620000 
 C        5.4858340000     2.3133390000     1.4557210000 
 H        1.5595630000    -0.6301500000    -1.6027730000 
 H        2.9198860000     0.4588940000    -1.9085670000 
 H        1.3949150000     1.0966340000    -1.2927390000 
 H        3.2659400000    -0.8265950000     0.2054340000 
 H        1.7377780000    -0.2344960000     0.8307360000 
 H        1.5810220000     2.4652540000     0.4744180000 
 H        2.9552690000     3.3224540000     1.1260610000 
 H        1.2875070000     1.2682570000     2.6831840000 
 H        1.1665220000     3.0214370000     2.8459120000 
 H        2.6470890000     2.1829110000     3.3321330000 
 H        5.1506410000     0.3272220000     0.6026330000 
 H        4.9241910000     3.2034360000     1.7402150000 
 H        6.2437000000     2.6130110000     0.7242210000 
 H        6.0307410000     1.9687240000     2.3410810000 
*
