! RI PBE def2-SVP def2-SVP/J NBO PAL2
% maxcore 2000
% output
    # printlevel mini
    print[ P_Basis ] 0
    print[ P_SCFInfo ] 1
    print[ P_SCFIterInfo ] 1
    print[ P_OrbEn ] 0
    print[ P_Cartesian ] 0
end
*xyz 0 1
 C        2.8159140000     0.1629570000    -1.3385250000 
 C        2.4212150000    -0.0162300000     0.1157860000 
 C        2.9675650000     1.0722020000     1.0488520000 
 C        2.4236550000     0.9127570000     2.4745080000 
 C        2.8210280000     2.0351830000     3.4153460000 
 C        4.4260450000     1.0891970000     1.0406370000 
 C        5.6276040000     1.0787170000     1.0436220000 
 H        2.3979350000    -0.6332200000    -1.9584030000 
 H        3.9015300000     0.1475320000    -1.4562660000 
 H        2.4515310000     1.1163180000    -1.7317860000 
 H        2.7639080000    -0.9900060000     0.4806630000 
 H        1.3299940000    -0.0132430000     0.2083040000 
 H        2.6275300000     2.0451820000     0.6660030000 
 H        2.7662760000    -0.0486010000     2.8710080000 
 H        1.3322600000     0.8527570000     2.4067800000 
 H        3.9068830000     2.1033210000     3.5099280000 
 H        2.4048170000     1.8758380000     4.4124560000 
 H        2.4567290000     3.0009740000     3.0536010000 
 H        6.6918100000     1.0765280000     1.0434170000 
*
