! RI PBE def2-SVP def2-SVP/J NBO PAL2
% maxcore 2000
% output
    # printlevel mini
    print[ P_Basis ] 0
    print[ P_SCFInfo ] 1
    print[ P_SCFIterInfo ] 1
    print[ P_OrbEn ] 0
    print[ P_Cartesian ] 0
end
*xyz 0 1
 C        1.0293050000    -0.1289150000    -0.0027120000 
 C        2.5373400000     0.0607750000    -0.1464370000 
 C        2.9966120000     1.3596610000     0.3223150000 
 C        3.3520020000     2.4387530000     0.7178920000 
 C        3.7914410000     3.7518280000     1.1731070000 
 C        3.9408610000     4.7376920000     0.0501610000 
 C        3.3468510000     5.9200750000     0.0102370000 
 H        0.7312590000    -1.1139380000    -0.3683870000 
 H        0.4875050000     0.6281040000    -0.5721930000 
 H        0.7254900000    -0.0439290000     1.0420620000 
 H        2.8266270000    -0.0607750000    -1.1959680000 
 H        3.0637740000    -0.7256600000     0.4052470000 
 H        4.7558190000     3.6406460000     1.6860270000 
 H        3.0893220000     4.1438880000     1.9160470000 
 H        4.5876710000     4.4268320000    -0.7663770000 
 H        2.6864640000     6.2509900000     0.8059990000 
 H        3.4967580000     6.6004610000    -0.8198210000 
*
