! RI PBE def2-SVP def2-SVP/J NBO PAL2
% maxcore 2000
% output
    # printlevel mini
    print[ P_Basis ] 0
    print[ P_SCFInfo ] 1
    print[ P_SCFIterInfo ] 1
    print[ P_OrbEn ] 0
    print[ P_Cartesian ] 0
end
*xyz 0 1
 C        0.8949390000    -1.0217490000     1.3738370000 
 C        2.4123760000    -0.9582430000     1.3530200000 
 C        3.0174160000    -1.6413070000     0.1288620000 
 C        4.5061370000    -1.5465230000     0.0809380000 
 C        5.3433430000    -2.5772400000     0.0788360000 
 C        6.8334200000    -2.4832970000     0.0539400000 
 C        7.4847010000    -3.1422230000     1.2653020000 
 H        0.4852530000    -0.5285300000     2.2582930000 
 H        0.5433870000    -2.0574290000     1.3788520000 
 H        0.4669850000    -0.5342510000     0.4931480000 
 H        2.8190200000    -1.4246700000     2.2565290000 
 H        2.7387700000     0.0876910000     1.3786000000 
 H        2.5922120000    -1.1781150000    -0.7718920000 
 H        2.7150790000    -2.6940980000     0.1073720000 
 H        4.9221440000    -0.5382950000     0.0578450000 
 H        4.9280720000    -3.5857290000     0.1085560000 
 H        7.1313270000    -1.4319350000    -0.0062890000 
 H        7.2110580000    -2.9662480000    -0.8560930000 
 H        7.1713610000    -2.6529730000     2.1905590000 
 H        8.5744340000    -3.0909950000     1.2053860000 
 H        7.2043880000    -4.1966520000     1.3374790000 
*
