! RI PBE def2-SVP def2-SVP/J NBO PAL2
% maxcore 2000
% output
    # printlevel mini
    print[ P_Basis ] 0
    print[ P_SCFInfo ] 1
    print[ P_SCFIterInfo ] 1
    print[ P_OrbEn ] 0
    print[ P_Cartesian ] 0
end
*xyz 0 1
 C        0.7319690000     0.2168340000    -0.2812720000 
 C        2.0810690000    -0.1662520000     0.3020220000 
 C        3.2467900000     0.4455210000    -0.4758550000 
 C        4.5952880000     0.0523620000     0.0562560000 
 C        5.3107650000     0.8870720000     0.8171480000 
 C        5.1330570000    -1.2718320000    -0.2482590000 
 C        4.5799420000    -2.1871410000    -1.0424030000 
 H       -0.0893820000    -0.2158480000     0.2944080000 
 H        0.6336970000    -0.1319310000    -1.3133970000 
 H        0.5973570000     1.3023340000    -0.2878290000 
 H        2.1834060000    -1.2550260000     0.3217970000 
 H        2.1447220000     0.1634450000     1.3439900000 
 H        3.1581330000     1.5356670000    -0.4474490000 
 H        3.1665210000     0.1572860000    -1.5303450000 
 H        4.9568460000     1.8842780000     1.0539190000 
 H        6.2734070000     0.5951160000     1.2229160000 
 H        6.0857800000    -1.5012110000     0.2240800000 
 H        3.6341810000    -2.0227420000    -1.5463550000 
 H        5.0651620000    -3.1396330000    -1.2177730000 
*
