! RI PBE def2-SVP def2-SVP/J NBO PAL2
% maxcore 2000
% output
    # printlevel mini
    print[ P_Basis ] 0
    print[ P_SCFInfo ] 1
    print[ P_SCFIterInfo ] 1
    print[ P_OrbEn ] 0
    print[ P_Cartesian ] 0
end
*xyz 0 1
 C        1.7525440000    -0.7897140000     1.4267160000 
 C        3.2630230000    -0.7432460000     1.2695450000 
 C        3.7963070000     0.6864300000     1.1914800000 
 C        5.2910690000     0.7894210000     1.0625560000 
 C        5.8678940000     0.2406350000    -0.2064510000 
 C        6.0124870000     1.3448920000     2.0382950000 
 C        7.4902670000     1.5335260000     2.1075290000 
 H        1.3864870000    -1.8174520000     1.4837880000 
 H        1.2534750000    -0.3055210000     0.5824040000 
 H        1.4342960000    -0.2725920000     2.3363930000 
 H        3.5510850000    -1.2975780000     0.3705690000 
 H        3.7414760000    -1.2541690000     2.1121320000 
 H        3.4733750000     1.2338840000     2.0829140000 
 H        3.3249740000     1.1847230000     0.3326340000 
 H        5.3488030000     0.6621990000    -1.0739430000 
 H        5.7384510000    -0.8447250000    -0.2636080000 
 H        6.9304350000     0.4517130000    -0.3166280000 
 H        5.4645580000     1.7126510000     2.9049180000 
 H        8.0120540000     1.1669720000     1.2237390000 
 H        7.9069650000     1.0133730000     2.9765970000 
 H        7.7422730000     2.5920590000     2.2307110000 
*
