! RI PBE def2-SVP def2-SVP/J NBO PAL2
% maxcore 2000
% output
    # printlevel mini
    print[ P_Basis ] 0
    print[ P_SCFInfo ] 1
    print[ P_SCFIterInfo ] 1
    print[ P_OrbEn ] 0
    print[ P_Cartesian ] 0
end
*xyz 0 1
 C        1.3149210000     1.1920240000     3.2051530000 
 C        2.7893760000     0.8289190000     3.1552690000 
 C        3.4461620000     1.2107950000     1.8388970000 
 C        4.9329700000     0.8566910000     1.7430700000 
 C        5.4532600000     1.1096540000     0.3296280000 
 C        5.7438390000     1.6280740000     2.7368090000 
 C        6.4890320000     1.1063430000     3.7009660000 
 H        0.8632550000     0.9050950000     4.1576250000 
 H        0.7553620000     0.6923260000     2.4089820000 
 H        1.1696820000     2.2690550000     3.0811540000 
 H        2.9083820000    -0.2493770000     3.3149410000 
 H        3.3192220000     1.3143540000     3.9810700000 
 H        3.3271390000     2.2894050000     1.6692430000 
 H        2.9174420000     0.7165880000     1.0146700000 
 H        5.0458520000    -0.2112030000     1.9696410000 
 H        5.3652890000     2.1685360000     0.0674790000 
 H        4.8799410000     0.5368810000    -0.4041030000 
 H        6.5046650000     0.8293890000     0.2384770000 
 H        5.7067120000     2.7127890000     2.6265790000 
 H        6.5543660000     0.0321070000     3.8464030000 
 H        7.0613510000     1.7293550000     4.3788370000 
*
