! RI PBE def2-SVP def2-SVP/J NBO PAL2
% maxcore 2000
% output
    # printlevel mini
    print[ P_Basis ] 0
    print[ P_SCFInfo ] 1
    print[ P_SCFIterInfo ] 1
    print[ P_OrbEn ] 0
    print[ P_Cartesian ] 0
end
*xyz 0 1
 C        0.9700430000    -0.0191280000    -0.0761270000 
 C        2.4882810000    -0.0204450000    -0.0717280000 
 C        3.0702460000     0.0997690000    -1.4809630000 
 C        4.5246820000     0.1036990000    -1.5075880000 
 C        5.7281460000     0.1042120000    -1.5112050000 
 C        7.1835970000     0.1077610000    -1.4970130000 
 C        7.7674300000     0.2246490000    -0.0911540000 
 H        0.5703100000    -0.1027830000     0.9367820000 
 H        0.5742710000    -0.8557280000    -0.6590190000 
 H        0.5759640000     0.9028750000    -0.5131760000 
 H        2.8646790000    -0.9384540000     0.3889580000 
 H        2.8653460000     0.8059820000     0.5378270000 
 H        2.6966500000     1.0178590000    -1.9500120000 
 H        2.6989820000    -0.7270400000    -2.0983120000 
 H        7.5455990000     0.9354890000    -2.1166330000 
 H        7.5489090000    -0.8087440000    -1.9731110000 
 H        7.4408220000     1.1490600000     0.3884160000 
 H        8.8590360000     0.2231160000    -0.1284250000 
 H        7.4434190000    -0.6096490000     0.5334840000 
*
