! RI PBE def2-SVP def2-SVP/J NBO PAL2
% maxcore 2000
% output
    # printlevel mini
    print[ P_Basis ] 0
    print[ P_SCFInfo ] 1
    print[ P_SCFIterInfo ] 1
    print[ P_OrbEn ] 0
    print[ P_Cartesian ] 0
end
*xyz 0 1
 C        0.8846800000    -0.1013340000    -0.0750140000 
 C        2.4025720000    -0.0909400000    -0.0572570000 
 C        2.9594050000     0.3992780000     1.2803170000 
 C        4.4103070000     0.4228730000     1.3302730000 
 C        5.6161850000     0.4406030000     1.3611840000 
 C        7.0337750000     0.4409640000     1.3643040000 
 C        7.7923750000     0.9996670000     2.3075060000 
 H        0.5026310000    -0.4525310000    -1.0357820000 
 H        0.4792670000     0.8997530000     0.0972570000 
 H        0.4831750000    -0.7583070000     0.7017160000 
 H        2.7861290000     0.5504340000    -0.8559540000 
 H        2.7905610000    -1.0943170000    -0.2550710000 
 H        2.5826930000    -0.2395840000     2.0886350000 
 H        2.5759790000     1.4053410000     1.4896620000 
 H        7.5118320000    -0.0581080000     0.5242870000 
 H        7.3547160000     1.5057360000     3.1597240000 
 H        8.8727990000     0.9606600000     2.2442330000 
*
