! RI PBE def2-SVP def2-SVP/J NBO PAL2
% maxcore 2000
% output
    # printlevel mini
    print[ P_Basis ] 0
    print[ P_SCFInfo ] 1
    print[ P_SCFIterInfo ] 1
    print[ P_OrbEn ] 0
    print[ P_Cartesian ] 0
end
*xyz 0 1
 C        0.9229870000     0.0866510000     0.0465630000 
 C        2.4409070000     0.0829420000     0.0509940000 
 C        3.0193150000     0.7605990000    -1.1942550000 
 C        4.4676780000     0.7732320000    -1.2197970000 
 C        5.6761220000     0.7716760000    -1.2189320000 
 C        7.0395680000     0.7724640000    -1.2226710000 
 C        8.2454770000     0.7726930000    -1.2250170000 
 H        0.5262180000    -0.3995170000     0.9400130000 
 H        0.5268230000    -0.4442160000    -0.8235320000 
 H        0.5281470000     1.1060920000     0.0206530000 
 H        2.8176990000    -0.9423470000     0.1020950000 
 H        2.8190110000     0.5957620000     0.9397320000 
 H        2.6524200000     1.7923080000    -1.2554780000 
 H        2.6510630000     0.2528240000    -2.0938880000 
 H        9.3094550000     0.7731760000    -1.2276090000 
*
