! RI PBE def2-SVP def2-SVP/J NBO PAL2
% maxcore 2000
% output
    # printlevel mini
    print[ P_Basis ] 0
    print[ P_SCFInfo ] 1
    print[ P_SCFIterInfo ] 1
    print[ P_OrbEn ] 0
    print[ P_Cartesian ] 0
end
*xyz 0 1
 C        1.3044060000     0.3975820000    -0.0934470000 
 C        2.7566170000    -0.0483060000    -0.0750910000 
 C        2.9138050000    -1.5590730000     0.0107920000 
 C        4.3662460000    -1.9975640000     0.0287110000 
 C        4.6380620000    -3.4722080000     0.1119620000 
 C        6.0897670000    -3.8403850000     0.1258810000 
 C        3.6849140000    -4.3973190000     0.1697500000 
 H        1.2182990000     1.4848810000    -0.1554110000 
 H        0.7815040000     0.0739810000     0.8109720000 
 H        0.7727400000    -0.0270500000    -0.9496810000 
 H        3.2732080000     0.4174070000     0.7723470000 
 H        3.2645170000     0.3171520000    -0.9753050000 
 H        2.3991050000    -2.0240380000    -0.8380730000 
 H        2.4078230000    -1.9236290000     0.9123250000 
 H        4.8814570000    -1.5104350000     0.8687080000 
 H        4.8728030000    -1.6099980000    -0.8665700000 
 H        6.6015980000    -3.3767230000     0.9759440000 
 H        6.5929370000    -3.4771530000    -0.7765850000 
 H        6.2325770000    -4.9198960000     0.1870380000 
 H        2.6318430000    -4.1443030000     0.1604560000 
 H        3.9336740000    -5.4513130000     0.2289660000 
*
