! RI PBE def2-SVP def2-SVP/J NBO PAL2
% maxcore 2000
% output
    # printlevel mini
    print[ P_Basis ] 0
    print[ P_SCFInfo ] 1
    print[ P_SCFIterInfo ] 1
    print[ P_OrbEn ] 0
    print[ P_Cartesian ] 0
end
*xyz 0 1
 C        0.9156940000     0.0718650000    -0.0323720000 
 C        2.4346190000     0.0573350000    -0.0596450000 
 C        3.0026440000    -0.5748110000    -1.3204920000 
 C        4.5214320000    -0.5919560000    -1.3518010000 
 C        5.0728820000    -1.2305050000    -2.6269090000 
 C        6.5249030000    -1.2567180000    -2.6750180000 
 C        7.7254830000    -1.2688980000    -2.6961710000 
 H        0.5355810000     0.5310830000     0.8829940000 
 H        0.5100240000    -0.9422710000    -0.0878270000 
 H        0.5109060000     0.6344050000    -0.8784310000 
 H        2.8130230000    -0.4830710000     0.8157210000 
 H        2.8139180000     1.0816860000     0.0315950000 
 H        2.6252700000    -0.0340090000    -2.1978100000 
 H        2.6237860000    -1.6007130000    -1.4129860000 
 H        4.9070500000    -1.1380090000    -0.4848720000 
 H        4.9085780000     0.4286670000    -1.2687620000 
 H        4.6971930000    -0.6882570000    -3.5022910000 
 H        4.6949120000    -2.2553020000    -2.7185410000 
 H        8.7892030000    -1.2820310000    -2.7191820000 
*
