! RI PBE def2-SVP def2-SVP/J NBO PAL2
% maxcore 2000
% output
    # printlevel mini
    print[ P_Basis ] 0
    print[ P_SCFInfo ] 1
    print[ P_SCFIterInfo ] 1
    print[ P_OrbEn ] 0
    print[ P_Cartesian ] 0
end
*xyz 0 1
 C       -0.8535440000     0.0002800000    -1.2227380000 
 C       -0.5958290000     1.0185760000    -0.0990810000 
 C       -1.3351780000    -0.0004090000     0.8182810000 
 C       -0.5956040000    -1.0186600000    -0.0997160000 
 C        0.8543490000    -0.7400750000     0.3303920000 
 N        1.7603650000     0.0003600000    -0.5289910000 
 C        0.8541790000     0.7400360000     0.3308640000 
 H       -0.2318320000     0.0006280000    -2.1208510000 
 H       -1.9014650000     0.0002560000    -1.5226270000 
 H       -0.9057580000     2.0594130000    -0.1834910000 
 H       -2.4203300000    -0.0004870000     0.6889440000 
 H       -1.0729210000    -0.0007110000     1.8791550000 
 H       -0.9053030000    -2.0595130000    -0.1847760000 
 H        1.3084630000    -1.3510490000     1.1018300000 
 H        1.4833730000     0.0006420000    -1.5030820000 
 H        1.3081560000     1.3506230000     1.1026890000 
*
