! RI PBE def2-SVP def2-SVP/J NBO PAL2
% maxcore 2000
% output
    # printlevel mini
    print[ P_Basis ] 0
    print[ P_SCFInfo ] 1
    print[ P_SCFIterInfo ] 1
    print[ P_OrbEn ] 0
    print[ P_Cartesian ] 0
end
*xyz 0 1
 C       -1.0219890000    -0.0007090000    -1.0778200000 
 C       -0.6174970000     1.0290420000     0.0026550000 
 C       -1.0544420000    -0.0350280000     1.0361940000 
 C       -0.5949750000    -1.0621440000    -0.0309610000 
 C        0.9066620000    -1.0740290000    -0.0082690000 
 N        1.5693890000     0.0238320000     0.0195770000 
 N        0.8181290000     1.1313390000     0.0266850000 
 H       -0.4953660000     0.0260640000    -2.0323980000 
 H       -2.1013180000    -0.0022310000    -1.2291910000 
 H       -1.0616240000     2.0242370000     0.0119880000 
 H       -2.1379040000    -0.0409340000     1.1542660000 
 H       -0.5573500000    -0.0394610000     2.0068340000 
 H       -1.0389960000    -2.0563700000    -0.0539170000 
 H        1.4781070000    -1.9950630000    -0.0146630000 
 H        1.3068940000     2.0038660000     0.0462310000 
*
