! RI PBE def2-SVP def2-SVP/J NBO PAL2
% maxcore 2000
% output
    # printlevel mini
    print[ P_Basis ] 0
    print[ P_SCFInfo ] 1
    print[ P_SCFIterInfo ] 1
    print[ P_OrbEn ] 0
    print[ P_Cartesian ] 0
end
*xyz 0 1
 C        1.7167970000     0.0788040000    -0.4276130000 
 C        0.7699400000     0.8883060000     0.3637440000 
 C       -0.6632130000     1.0857830000    -0.1184330000 
 C       -1.3662370000     0.0861390000     0.8516290000 
 C       -0.5296630000    -0.9224300000     0.0297120000 
 C       -0.8427910000    -0.0166830000    -1.1773390000 
 N        0.8310410000    -0.5792860000     0.5286130000 
 H        2.7561530000     0.0671610000    -0.1157520000 
 H        1.5766840000    -0.0570960000    -1.4925650000 
 H        1.1249940000     1.4946700000     1.1915300000 
 H       -1.0135870000     2.1055210000    -0.2705160000 
 H       -2.4412070000     0.0043610000     0.6861360000 
 H       -1.1301560000     0.1591860000     1.9146880000 
 H       -0.7172350000    -1.9946790000     0.0312200000 
 H       -1.8873720000    -0.1132370000    -1.4717880000 
 H       -0.2167460000    -0.0330300000    -2.0685570000 
*
