! RI PBE def2-SVP def2-SVP/J NBO PAL2
% maxcore 2000
% output
    # printlevel mini
    print[ P_Basis ] 0
    print[ P_SCFInfo ] 1
    print[ P_SCFIterInfo ] 1
    print[ P_OrbEn ] 0
    print[ P_Cartesian ] 0
end
*xyz 0 1
 C       -1.6073800000     0.9359730000     0.3507270000 
 C       -1.2277260000    -0.4263700000    -0.1591440000 
 C       -0.2003150000    -1.3249370000     0.6074490000 
 C        1.0341860000    -0.7488110000    -0.0789230000 
 N        2.1892500000     0.0948860000     0.1236070000 
 C        0.8415290000     0.7170850000     0.1174250000 
 C       -0.4923180000     0.8465950000    -0.6424740000 
 H       -1.3636950000     1.2045230000     1.3734210000 
 H       -2.5577160000     1.3318400000     0.0090920000 
 H       -1.9465550000    -0.9248370000    -0.8007380000 
 H       -0.3801260000    -2.3847110000     0.4076120000 
 H       -0.2208930000    -1.1638510000     1.6866810000 
 H        0.9289570000    -0.9921510000    -1.1386640000 
 H        2.7063900000     0.1253500000    -0.7501020000 
 H        0.6739350000     0.9911050000     1.1549530000 
 H       -0.6060230000     1.2465230000    -1.6424300000 
*
