! RI PBE def2-SVP def2-SVP/J NBO PAL2
% maxcore 2000
% output
    # printlevel mini
    print[ P_Basis ] 0
    print[ P_SCFInfo ] 1
    print[ P_SCFIterInfo ] 1
    print[ P_OrbEn ] 0
    print[ P_Cartesian ] 0
end
*xyz 0 1
 C        0.5881260000     1.2073120000     0.6821680000 
 C       -0.8370380000     0.7687190000     0.4238450000 
 C       -0.8433170000     0.0336770000    -0.8631760000 
 C        0.5780530000     0.0280310000    -1.3826640000 
 C        1.2572590000     0.0145080000    -0.0090570000 
 C        0.4944420000    -1.1338640000     0.6505110000 
 N       -0.8926070000    -0.7038390000     0.4116950000 
 H        0.8298230000     1.2726890000     1.7461980000 
 H        0.8237580000     2.1630930000     0.2066400000 
 H       -1.6990050000     1.2917710000     0.8169020000 
 H       -1.7103440000    -0.0354750000    -1.5070280000 
 H        0.8131610000     0.9222380000    -1.9659990000 
 H        0.8116390000    -0.8562040000    -1.9813450000 
 H        2.3443400000    -0.0250140000     0.0082110000 
 H        0.6781220000    -1.2213180000     1.7240730000 
 H        0.6705780000    -2.1037150000     0.1790350000 
*
