! RI PBE def2-SVP def2-SVP/J NBO PAL2
% maxcore 2000
% output
    # printlevel mini
    print[ P_Basis ] 0
    print[ P_SCFInfo ] 1
    print[ P_SCFIterInfo ] 1
    print[ P_OrbEn ] 0
    print[ P_Cartesian ] 0
end
*xyz 0 1
 C       -1.4895960000     0.6828550000     0.3943800000 
 C       -1.2220400000    -0.6322680000    -0.2158640000 
 C       -0.2471940000    -1.5379580000     0.3714060000 
 C        0.9957780000    -1.1105810000     0.6165750000 
 C        1.3970550000     0.1869360000     0.1079240000 
 N        0.6776190000     0.9659880000    -0.6051780000 
 N       -0.6763260000     0.6793580000    -0.8030850000 
 H       -0.9857640000     0.8991570000     1.3317570000 
 H       -2.4657020000     1.1377710000     0.2671170000 
 H       -1.9993920000    -1.0726150000    -0.8311960000 
 H       -0.5414980000    -2.5661240000     0.5541790000 
 H        1.7496920000    -1.7584980000     1.0458280000 
 H        2.4341770000     0.4959800000     0.2178450000 
*
