! RI PBE def2-SVP def2-SVP/J NBO PAL2
% maxcore 2000
% output
    # printlevel mini
    print[ P_Basis ] 0
    print[ P_SCFInfo ] 1
    print[ P_SCFIterInfo ] 1
    print[ P_OrbEn ] 0
    print[ P_Cartesian ] 0
end
*xyz 0 1
 C       -0.8390290000     0.0001830000    -1.2604220000 
 C       -0.6017820000     0.9850680000    -0.1063010000 
 N       -1.2806710000    -0.0004670000     0.8210800000 
 C       -0.6014740000    -0.9852730000    -0.1068500000 
 C        0.8510120000    -0.7396980000     0.3270100000 
 N        1.7579360000     0.0003850000    -0.5288780000 
 C        0.8507800000     0.7397040000     0.3274230000 
 H       -0.2122570000     0.0005310000    -2.1574150000 
 H       -1.8867280000     0.0001030000    -1.5619230000 
 H       -0.9653030000     2.0118510000    -0.1159670000 
 H       -2.2779200000    -0.0005590000     0.5993730000 
 H       -0.9646740000    -2.0121630000    -0.1170900000 
 H        1.2887080000    -1.3496210000     1.1067130000 
 H        1.4894250000     0.0006170000    -1.5050170000 
 H        1.2882860000     1.3493290000     1.1074660000 
*
