! RI PBE def2-SVP def2-SVP/J NBO PAL2
% maxcore 2000
% output
    # printlevel mini
    print[ P_Basis ] 0
    print[ P_SCFInfo ] 1
    print[ P_SCFIterInfo ] 1
    print[ P_OrbEn ] 0
    print[ P_Cartesian ] 0
end
*xyz 0 1
 C       -1.3305710000     0.6582460000     0.0045830000 
 C       -1.0614760000    -0.8298380000    -0.1408630000 
 N       -0.2258040000    -1.4125850000     0.9057450000 
 C        0.3878530000    -1.0391280000    -0.3681620000 
 C        1.0576340000     0.3102880000    -0.3807900000 
 N        0.9942110000     1.0446250000     0.8821180000 
 C        0.0162410000     1.3415110000    -0.1612820000 
 H       -1.7964900000     0.8980500000     0.9635940000 
 H       -2.0032650000     0.9852010000    -0.7934940000 
 H       -1.8095730000    -1.4558170000    -0.6168860000 
 H       -0.3648940000    -2.4177910000     0.9288970000 
 H        0.7629470000    -1.8132300000    -1.0276160000 
 H        1.8952570000     0.4704200000    -1.0498570000 
 H        1.7101720000     1.7640930000     0.8887830000 
 H        0.0583680000     2.3082650000    -0.6528600000 
*
