! RI PBE def2-SVP def2-SVP/J NBO PAL2
% maxcore 2000
% output
    # printlevel mini
    print[ P_Basis ] 0
    print[ P_SCFInfo ] 1
    print[ P_SCFIterInfo ] 1
    print[ P_OrbEn ] 0
    print[ P_Cartesian ] 0
end
*xyz 0 1
 C       -2.6504310000     0.3621270000     0.6606110000 
 C       -2.4639480000     0.3973200000    -0.8375880000 
 C       -1.2944400000     0.2073340000     0.0730530000 
 C       -0.4768140000    -1.0823290000     0.1388210000 
 N        0.9129190000    -0.6808610000    -0.0707400000 
 C        0.9199400000     0.5890780000    -0.0305020000 
 N       -0.2782150000     1.2270980000     0.2154310000 
 H       -3.1169870000    -0.5116830000     1.1013830000 
 H       -2.8824740000     1.2957500000     1.1594470000 
 H       -2.5807950000     1.3544860000    -1.3345160000 
 H       -2.7959870000    -0.4541410000    -1.4210350000 
 H       -0.7849320000    -1.8170320000    -0.6101150000 
 H       -0.5678470000    -1.5582920000     1.1227680000 
 H        1.8230500000     1.1832580000    -0.1382570000 
 H       -0.4344400000     2.1285870000    -0.2085610000 
*
