! RI PBE def2-SVP def2-SVP/J NBO PAL2
% maxcore 2000
% output
    # printlevel mini
    print[ P_Basis ] 0
    print[ P_SCFInfo ] 1
    print[ P_SCFIterInfo ] 1
    print[ P_OrbEn ] 0
    print[ P_Cartesian ] 0
end
*xyz 0 1
 C       -0.3965190000    -0.9389730000    -0.5351580000 
 C        0.9230480000    -1.1121370000    -1.2259610000 
 C        0.8256930000    -0.2608340000     0.0031500000 
 C        1.4789540000    -0.6779300000     1.2856090000 
 C        0.7639600000    -0.4276580000     2.6276720000 
 N        1.2876920000    -1.7162640000     3.1075160000 
 C        1.5192010000    -2.1546750000     1.7219480000 
 H       -0.7976390000    -1.7888420000     0.0041410000 
 H       -1.1485820000    -0.3242320000    -1.0139110000 
 H        1.0744660000    -0.6298450000    -2.1835410000 
 H        1.4125970000    -2.0743120000    -1.1283870000 
 H        0.8674320000     0.8104440000    -0.1737800000 
 H        2.4909070000    -0.2654360000     1.3266450000 
 H       -0.3262600000    -0.4057890000     2.4943520000 
 H        1.0692050000     0.4409920000     3.2176060000 
 H        0.6396060000    -2.2809150000     3.6408850000 
 H        0.6919440000    -2.7375590000     1.2947410000 
 H        2.4518050000    -2.7030550000     1.5640830000 
*
