! RI PBE def2-SVP def2-SVP/J NBO PAL2
% maxcore 2000
% output
    # printlevel mini
    print[ P_Basis ] 0
    print[ P_SCFInfo ] 1
    print[ P_SCFIterInfo ] 1
    print[ P_OrbEn ] 0
    print[ P_Cartesian ] 0
end
*xyz 0 1
 C        1.2517240000     0.3155300000     0.1771060000 
 C        0.9415820000     1.6702330000     0.7568290000 
 C       -0.4277380000     2.2568220000     0.6131890000 
 C        0.0559730000     1.7989730000     1.9571060000 
 C        2.4153190000    -0.3630140000     0.8468780000 
 C        2.2024650000    -1.3246350000     1.9432800000 
 N        2.6631470000    -1.7840080000     0.6330360000 
 H        1.4652650000     0.4195320000    -0.8943370000 
 H        0.3654950000    -0.3269590000     0.2577130000 
 H        1.7634400000     2.3783560000     0.7006800000 
 H       -1.1813750000     1.6564190000     0.1164410000 
 H       -0.5186400000     3.3211570000     0.4354560000 
 H       -0.3719720000     0.8906780000     2.3650520000 
 H        0.2952750000     2.5499620000     2.6995650000 
 H        3.3299400000     0.2260500000     0.8679050000 
 H        1.1768580000    -1.5316230000     2.2350320000 
 H        2.9288410000    -1.4179040000     2.7433310000 
 H        1.8903900000    -2.1942590000     0.1177370000 
*
