! RI PBE def2-SVP def2-SVP/J NBO PAL2
% maxcore 2000
% output
    # printlevel mini
    print[ P_Basis ] 0
    print[ P_SCFInfo ] 1
    print[ P_SCFIterInfo ] 1
    print[ P_OrbEn ] 0
    print[ P_Cartesian ] 0
end
*xyz 0 1
 C       -1.2365820000    -0.7755120000    -0.5202870000 
 C       -1.2395160000     0.7737960000    -0.5141130000 
 C        0.0040810000     1.0864320000     0.3220510000 
 C        1.2576100000     0.7772120000    -0.5180230000 
 C        1.2605210000    -0.7703910000    -0.5233730000 
 C        0.0078570000    -1.0901150000     0.3139620000 
 N       -0.0584070000    -0.0056200000     1.3042140000 
 H       -1.1748640000    -1.2008800000    -1.5236590000 
 H       -2.1311550000    -1.1720620000    -0.0383640000 
 H       -2.1352120000     1.1629410000    -0.0282350000 
 H       -1.1802580000     1.2074780000    -1.5140570000 
 H        0.0001380000     2.0739070000     0.7847660000 
 H        2.1535580000     1.1769420000    -0.0362300000 
 H        1.2072860000     1.2085770000    -1.5203730000 
 H        2.1576330000    -1.1699330000    -0.0435610000 
 H        1.2126380000    -1.1951040000    -1.5286730000 
 H        0.0071670000    -2.0810180000     0.7693070000 
 H        0.7745050000    -0.0063610000     1.8867480000 
*
