! RI PBE def2-SVP def2-SVP/J NBO PAL2
% maxcore 2000
% output
    # printlevel mini
    print[ P_Basis ] 0
    print[ P_SCFInfo ] 1
    print[ P_SCFIterInfo ] 1
    print[ P_OrbEn ] 0
    print[ P_Cartesian ] 0
end
*xyz 0 1
 C       -1.2122870000    -0.1035730000     0.8753900000 
 C       -0.5922180000    -1.0268220000    -0.1826270000 
 C        0.8804410000    -1.2713100000     0.1453620000 
 C        1.6686960000     0.0454230000     0.0538790000 
 C        0.8102830000     1.2828950000     0.3625730000 
 C       -0.6483660000     1.0173630000    -0.0087880000 
 N       -0.7818880000     0.0805980000    -1.1512790000 
 H       -0.8426220000    -0.1804730000     1.8990410000 
 H       -2.3014570000    -0.1319090000     0.8568090000 
 H       -1.1197580000    -1.9508890000    -0.4331860000 
 H        0.9508530000    -1.7111910000     1.1460190000 
 H        1.3119090000    -2.0037620000    -0.5442920000 
 H        2.0527530000     0.1426650000    -0.9655570000 
 H        2.5535940000     0.0153390000     0.6934470000 
 H        1.1979910000     2.1436220000    -0.1915960000 
 H        0.8612540000     1.5507980000     1.4234200000 
 H       -1.2266410000     1.9403130000    -0.1022740000 
 H       -0.0565370000     0.1606110000    -1.8578610000 
*
