! RI PBE def2-SVP def2-SVP/J NBO PAL2
% maxcore 2000
% output
    # printlevel mini
    print[ P_Basis ] 0
    print[ P_SCFInfo ] 1
    print[ P_SCFIterInfo ] 1
    print[ P_OrbEn ] 0
    print[ P_Cartesian ] 0
end
*xyz 0 1
 C       -1.8017890000     0.6928760000     0.3426550000 
 C       -1.7604730000    -0.7112750000    -0.3498850000 
 C       -0.2696190000    -0.7001370000     0.0368570000 
 N        0.9936850000    -1.1189870000    -0.5387670000 
 C        1.8966220000    -0.0749330000     0.0339440000 
 C        1.0419300000     1.1569730000     0.5593420000 
 C       -0.3017320000     0.7982270000    -0.0316600000 
 H       -1.9662710000     0.5942870000     1.4178290000 
 H       -2.4835310000     1.4406500000    -0.0619110000 
 H       -1.9171710000    -0.6106140000    -1.4268470000 
 H       -2.3945540000    -1.5076740000     0.0406250000 
 H       -0.2380710000    -0.9813550000     1.0995580000 
 H        0.9531840000    -0.9886170000    -1.5438760000 
 H        2.6249690000     0.2311080000    -0.7192050000 
 H        2.4553440000    -0.5105400000     0.8651000000 
 H        1.4590190000     2.1099000000     0.2280650000 
 H        1.0224270000     1.1572160000     1.6517710000 
 H       -0.2874690000     1.0562830000    -1.0998040000 
*
