! RI PBE def2-SVP def2-SVP/J NBO PAL2
% maxcore 2000
% output
    # printlevel mini
    print[ P_Basis ] 0
    print[ P_SCFInfo ] 1
    print[ P_SCFIterInfo ] 1
    print[ P_OrbEn ] 0
    print[ P_Cartesian ] 0
end
*xyz 0 1
 C       -0.8272340000     0.0269470000    -1.2040060000 
 C       -0.6356660000     1.0599300000    -0.0688040000 
 C       -1.1905050000    -0.0167710000     0.8845830000 
 C       -0.5911350000    -1.0372780000    -0.0981110000 
 N        0.8173420000    -1.2263340000     0.2270330000 
 C        1.6214000000    -0.0451780000    -0.0825390000 
 C        0.8524940000     1.2407300000     0.2305100000 
 H       -0.1581730000     0.0525900000    -2.0674790000 
 H       -1.8618220000     0.0080690000    -1.5518050000 
 H       -1.1578640000     2.0165330000    -0.1369130000 
 H       -2.2823110000    -0.0421690000     0.8813480000 
 H       -0.8116390000    -0.0419840000     1.9084010000 
 H       -1.0705650000    -2.0129420000    -0.1939020000 
 H        1.1841110000    -2.0247800000    -0.2736250000 
 H        1.9040130000    -0.0196700000    -1.1450550000 
 H        2.5540270000    -0.0840590000     0.4871390000 
 H        1.2753810000     2.0547950000    -0.3657190000 
 H        0.9706380000     1.5201830000     1.2824420000 
*
