! RI PBE def2-SVP def2-SVP/J NBO PAL2
% maxcore 2000
% output
    # printlevel mini
    print[ P_Basis ] 0
    print[ P_SCFInfo ] 1
    print[ P_SCFIterInfo ] 1
    print[ P_OrbEn ] 0
    print[ P_Cartesian ] 0
end
*xyz 0 1
 C       -1.7732240000     0.7951430000     0.2892640000 
 C       -1.6997250000    -0.6476200000    -0.2846270000 
 N       -0.2737710000    -0.5946760000     0.0315060000 
 C        0.9570860000    -1.0471350000    -0.5460300000 
 C        1.9247540000     0.0404490000     0.0233410000 
 C        1.0343710000     1.2134050000     0.5551230000 
 C       -0.2783740000     0.8363380000    -0.0930690000 
 H       -1.9341050000     0.7874400000     1.3675920000 
 H       -2.4402030000     1.5049060000    -0.1982200000 
 H       -1.9190910000    -0.6582990000    -1.3656300000 
 H       -2.2631980000    -1.4401690000     0.2119280000 
 H        0.9520420000    -1.0170650000    -1.6500580000 
 H        1.2309480000    -2.0569290000    -0.2315550000 
 H        2.6067750000     0.3877340000    -0.7547200000 
 H        2.5352460000    -0.3714810000     0.8275670000 
 H        1.4243610000     2.1898800000     0.2625480000 
 H        0.9576220000     1.1756640000     1.6432730000 
 H       -0.2327340000     1.1379080000    -1.1642340000 
*
