! RI PBE def2-SVP def2-SVP/J NBO PAL2
% maxcore 2000
% output
    # printlevel mini
    print[ P_Basis ] 0
    print[ P_SCFInfo ] 1
    print[ P_SCFIterInfo ] 1
    print[ P_OrbEn ] 0
    print[ P_Cartesian ] 0
end
*xyz 0 1
 C        0.9053050000    -1.1751730000     0.8260020000 
 C        1.1934470000    -0.3318970000    -0.3451120000 
 C        0.9804970000     1.1539050000    -0.3604740000 
 C       -0.2850030000     1.5536410000     0.3872740000 
 N       -1.4281590000     0.6978930000     0.1388010000 
 C       -1.2219690000    -0.5136290000    -0.1479310000 
 N        0.0088430000    -1.1909760000    -0.3429800000 
 H        0.5300690000    -0.6982360000     1.7258120000 
 H        1.4584770000    -2.0937290000     0.9876060000 
 H        1.9540030000    -0.6958960000    -1.0311360000 
 H        0.8896680000     1.4667310000    -1.4059380000 
 H        1.8513710000     1.6738080000     0.0494910000 
 H       -0.5658100000     2.5775790000     0.1286940000 
 H       -0.1063400000     1.5613830000     1.4689870000 
 H       -2.0840890000    -1.1639130000    -0.2962150000 
*
