! RI PBE def2-SVP def2-SVP/J NBO PAL2
% maxcore 2000
% output
    # printlevel mini
    print[ P_Basis ] 0
    print[ P_SCFInfo ] 1
    print[ P_SCFIterInfo ] 1
    print[ P_OrbEn ] 0
    print[ P_Cartesian ] 0
end
*xyz 0 1
 C        0.9045770000    -1.1902440000     0.8057670000 
 C        1.2220300000    -0.3071390000    -0.3334440000 
 C        1.0533580000     1.1836760000    -0.3363460000 
 C       -0.2473710000     1.6138430000     0.3230890000 
 C       -1.3406080000     0.6126500000     0.1301690000 
 N       -1.2319620000    -0.6230740000    -0.1325350000 
 N        0.0426350000    -1.1839310000    -0.3783900000 
 H        0.4831510000    -0.7415880000     1.7001100000 
 H        1.4709840000    -2.1003320000     0.9715520000 
 H        1.9884130000    -0.6657870000    -1.0154860000 
 H        1.0462300000     1.5096220000    -1.3811040000 
 H        1.9128590000     1.6698260000     0.1333200000 
 H       -0.5739790000     2.5876820000    -0.0511540000 
 H       -0.1131130000     1.7464260000     1.4036130000 
 H       -2.3652130000     0.9540610000     0.2774300000 
*
