! RI PBE def2-SVP def2-SVP/J NBO PAL2
% maxcore 2000
% output
    # printlevel mini
    print[ P_Basis ] 0
    print[ P_SCFInfo ] 1
    print[ P_SCFIterInfo ] 1
    print[ P_OrbEn ] 0
    print[ P_Cartesian ] 0
end
*xyz 0 1
 C       -1.7959360000     0.6328610000     0.2702000000 
 N       -1.7569460000    -0.7659120000    -0.2901880000 
 C       -0.2912570000    -0.7261220000     0.0370590000 
 C        1.0096570000    -1.1135240000    -0.6228730000 
 C        1.9371170000    -0.0108950000     0.0100450000 
 C        1.0324450000     1.1284130000     0.6172600000 
 C       -0.2863730000     0.7686650000    -0.0305470000 
 H       -2.0290440000     0.5827990000     1.3369480000 
 H       -2.4896260000     1.3152090000    -0.2236920000 
 H       -1.8659120000    -0.6911740000    -1.2997000000 
 H       -0.2361180000    -1.0322640000     1.0917440000 
 H        0.9564650000    -0.9971740000    -1.7089500000 
 H        1.3684830000    -2.1212790000    -0.4059330000 
 H        2.6096400000     0.3960500000    -0.7469580000 
 H        2.5685820000    -0.4469870000     0.7860850000 
 H        1.4187870000     2.1209060000     0.3790550000 
 H        0.9846550000     1.0394170000     1.7055760000 
 H       -0.2246180000     1.0335120000    -1.0958400000 
*
