! RI PBE def2-SVP def2-SVP/J NBO PAL2
% maxcore 2000
% output
    # printlevel mini
    print[ P_Basis ] 0
    print[ P_SCFInfo ] 1
    print[ P_SCFIterInfo ] 1
    print[ P_OrbEn ] 0
    print[ P_Cartesian ] 0
end
*xyz 0 1
 C        1.7931100000    -0.1972400000     0.2456470000 
 C        0.8562110000    -1.3857270000     0.5582110000 
 C       -0.1975610000    -0.7923990000    -0.4195390000 
 C       -1.4717150000    -0.2852050000     0.1704560000 
 N       -1.4148410000     0.9345230000     0.5375920000 
 N       -0.1427700000     1.4229250000     0.3336190000 
 C        0.6446460000     0.5067790000    -0.4958690000 
 H        2.6082430000    -0.4737920000    -0.4264560000 
 H        2.2021530000     0.3480320000     1.0970420000 
 H        0.5035710000    -1.4036810000     1.5903480000 
 H        1.2354930000    -2.3758530000     0.3029270000 
 H       -0.3289010000    -1.3669850000    -1.3374700000 
 H       -2.3848590000    -0.8498540000     0.3122820000 
 H       -0.1779660000     2.3869290000     0.0395590000 
 H        0.8768850000     0.9380290000    -1.4745400000 
*
