! RI PBE def2-SVP def2-SVP/J NBO PAL2
% maxcore 2000
% output
    # printlevel mini
    print[ P_Basis ] 0
    print[ P_SCFInfo ] 1
    print[ P_SCFIterInfo ] 1
    print[ P_OrbEn ] 0
    print[ P_Cartesian ] 0
end
*xyz 0 1
 C        0.3214810000     1.4780040000     0.4549230000 
 C        1.2839320000     0.3746570000    -0.0384060000 
 C        0.3299000000    -0.5209590000    -0.8689810000 
 N       -0.5161680000     0.5239020000    -1.4647350000 
 C       -1.0193840000     1.0258690000    -0.1773690000 
 C       -1.4199640000    -0.2387890000     0.5629040000 
 C       -0.5904840000    -1.1896740000     0.1377790000 
 H        0.6076230000     2.4543590000     0.0617890000 
 H        0.2603850000     1.5466530000     1.5415610000 
 H        1.7635590000    -0.1766680000     0.7710540000 
 H        2.0603400000     0.7890150000    -0.6827630000 
 H        0.8195240000    -1.1640590000    -1.5989480000 
 H       -1.2820140000     0.0798990000    -1.9658090000 
 H       -1.7723270000     1.8072650000    -0.2704310000 
 H       -2.1358720000    -0.2961750000     1.3731360000 
 H       -0.4795120000    -2.1949910000     0.5241950000 
*
