! RI PBE def2-SVP def2-SVP/J NBO PAL2
% maxcore 2000
% output
    # printlevel mini
    print[ P_Basis ] 0
    print[ P_SCFInfo ] 1
    print[ P_SCFIterInfo ] 1
    print[ P_OrbEn ] 0
    print[ P_Cartesian ] 0
end
*xyz 0 1
 C       -0.3203610000    -0.9148560000     1.1909630000 
 C        0.7811160000    -1.3257200000     0.1884630000 
 C        0.8757330000    -0.0621150000    -0.7040000000 
 N        0.6782030000     0.9694260000     0.3252710000 
 C       -0.6684480000     0.5139070000     0.7014370000 
 C       -1.3670750000     0.3341160000    -0.6355190000 
 C       -0.4177920000    -0.0199280000    -1.4995000000 
 H        0.0691650000    -0.8747920000     2.2089820000 
 H       -1.1876320000    -1.5758400000     1.1778800000 
 H        0.5327970000    -2.2176240000    -0.3877900000 
 H        1.7317350000    -1.4947850000     0.6958510000 
 H        1.8058310000     0.0406020000    -1.2612510000 
 H        0.6028120000     1.8763140000    -0.1292580000 
 H       -1.1604170000     1.1471010000     1.4384530000 
 H       -2.4377920000     0.3498310000    -0.7955580000 
 H       -0.5421940000    -0.3571470000    -2.5208240000 
*
