! RI PBE def2-SVP def2-SVP/J NBO PAL2
% maxcore 2000
% output
    # printlevel mini
    print[ P_Basis ] 0
    print[ P_SCFInfo ] 1
    print[ P_SCFIterInfo ] 1
    print[ P_OrbEn ] 0
    print[ P_Cartesian ] 0
end
*xyz 0 1
 C       -1.5187010000     0.7619130000     0.1208410000 
 C       -1.3827590000    -0.7433510000    -0.1000470000 
 C        0.0072320000    -1.2568200000     0.2132050000 
 N        1.0714040000    -1.1316820000    -0.7855500000 
 C        1.1207890000    -0.2991850000     0.4072590000 
 C        0.8398510000     1.1831210000     0.3195580000 
 N       -0.3921310000     1.5418470000    -0.3532670000 
 H       -1.6123370000     0.9616480000     1.1947450000 
 H       -2.4330520000     1.1365360000    -0.3471120000 
 H       -1.6343070000    -0.9950330000    -1.1379360000 
 H       -2.1124130000    -1.2706190000     0.5219520000 
 H        0.0462140000    -2.2018670000     0.7470760000 
 H        0.7272920000    -0.5871120000    -1.5727020000 
 H        1.9233530000    -0.5646620000     1.0914520000 
 H        1.6724010000     1.6926340000    -0.1763900000 
 H        0.7962610000     1.5802110000     1.3417170000 
 H       -0.2991880000     1.4785110000    -1.3593010000 
*
