! RI PBE def2-SVP def2-SVP/J NBO PAL2
% maxcore 2000
% output
    # printlevel mini
    print[ P_Basis ] 0
    print[ P_SCFInfo ] 1
    print[ P_SCFIterInfo ] 1
    print[ P_OrbEn ] 0
    print[ P_Cartesian ] 0
end
*xyz 0 1
 C       -1.7216150000     0.6446190000     0.3541120000 
 N       -1.7405730000    -0.7374440000    -0.2544360000 
 C       -0.2604910000    -0.7302400000     0.0145830000 
 C        1.0442680000    -1.1063250000    -0.6447120000 
 C        1.9286220000    -0.0052300000     0.0442620000 
 N        1.0251900000     1.0891450000     0.5475360000 
 C       -0.2346830000     0.7530210000    -0.0665130000 
 H       -1.8653200000     0.5627440000     1.4334990000 
 H       -2.4367040000     1.3510650000    -0.0699730000 
 H       -1.8948490000    -0.6266500000    -1.2547440000 
 H       -0.1818500000    -1.0110100000     1.0725160000 
 H        1.0111060000    -0.9645730000    -1.7280630000 
 H        1.4219090000    -2.1079080000    -0.4337790000 
 H        2.6725520000     0.3818170000    -0.6578840000 
 H        2.4704920000    -0.4362340000     0.8899670000 
 H        1.3814170000     1.9923140000     0.2658940000 
 H       -0.2670700000     1.0314990000    -1.1352630000 
*
