! RI PBE def2-SVP def2-SVP/J NBO PAL2
% maxcore 2000
% output
    # printlevel mini
    print[ P_Basis ] 0
    print[ P_SCFInfo ] 1
    print[ P_SCFIterInfo ] 1
    print[ P_OrbEn ] 0
    print[ P_Cartesian ] 0
end
*xyz 0 1
 C        1.7618140000     0.1349790000    -1.1688380000 
 C        2.3527100000    -0.0003060000     0.2886590000 
 C        2.8943180000    -1.3526220000    -0.1509610000 
 C        2.3808050000    -1.2218310000    -1.3986250000 
 N        2.6970560000    -2.3207160000    -2.1023960000 
 N        3.4102070000    -3.1734890000    -1.3400420000 
 C        3.5414910000    -2.6015340000    -0.1457950000 
 H        2.1782410000     0.9564610000    -1.7557910000 
 H        0.6715920000     0.1778490000    -1.2172000000 
 H        1.5947180000    -0.0213990000     1.0742980000 
 H        3.0999780000     0.7563560000     0.5362070000 
 H        2.4929500000    -2.5813500000    -3.0503370000 
 H        4.0878210000    -3.1267980000     0.6234220000 
*
