! RI PBE def2-SVP def2-SVP/J NBO PAL2
% maxcore 2000
% output
    # printlevel mini
    print[ P_Basis ] 0
    print[ P_SCFInfo ] 1
    print[ P_SCFIterInfo ] 1
    print[ P_OrbEn ] 0
    print[ P_Cartesian ] 0
end
*xyz 0 1
 C       -0.3249200000    -0.9579530000    -0.5857100000 
 N        1.0042910000    -1.2065070000    -1.1377740000 
 C        0.8635250000    -0.3172470000     0.0106150000 
 C        1.4819800000    -0.7528270000     1.3034270000 
 C        0.8040670000    -0.3488390000     2.6308060000 
 C        1.2317390000    -1.7111750000     3.2071740000 
 C        1.4019770000    -2.2213350000     1.7628760000 
 H       -0.7851100000    -1.8150470000    -0.1061740000 
 H       -1.0140400000    -0.3288870000    -1.1407570000 
 H        1.1420270000    -0.6800250000    -1.9925470000 
 H        0.9558560000     0.7506910000    -0.1847360000 
 H        2.5297160000    -0.4317420000     1.3163600000 
 H       -0.2808940000    -0.2918940000     2.5066470000 
 H        1.1485480000     0.5576800000     3.1316550000 
 H        0.5269170000    -2.2350530000     3.8544360000 
 H        2.1919200000    -1.6423090000     3.7234040000 
 H        0.4923930000    -2.7061160000     1.4026140000 
 H        2.2496890000    -2.8675040000     1.5356640000 
*
