! RI PBE def2-SVP def2-SVP/J NBO PAL2
% maxcore 2000
% output
    # printlevel mini
    print[ P_Basis ] 0
    print[ P_SCFInfo ] 1
    print[ P_SCFIterInfo ] 1
    print[ P_OrbEn ] 0
    print[ P_Cartesian ] 0
end
*xyz 0 1
 C        0.3432700000    -1.7587390000    -1.0947700000 
 C        0.6638350000    -0.3182160000    -1.0023140000 
 N        0.1515120000    -1.0369040000     0.1475030000 
 C        1.1060880000    -1.3161570000     1.1886140000 
 C        1.1981040000    -0.3102060000     2.3474730000 
 C        1.3532120000    -1.5070340000     3.3061790000 
 C        0.7330880000    -2.3996940000     2.2133960000 
 H        1.1816570000    -2.4492680000    -1.1529110000 
 H       -0.5605150000    -2.0896190000    -1.5944650000 
 H       -0.0016800000     0.4216150000    -1.4332940000 
 H        1.7166750000    -0.0450550000    -0.9986020000 
 H        2.1113500000    -1.5134300000     0.7764320000 
 H        0.2331280000     0.1834340000     2.4810960000 
 H        1.9873710000     0.4426440000     2.3175560000 
 H        0.8435230000    -1.4553510000     4.2684970000 
 H        2.4029700000    -1.7518790000     3.4810630000 
 H       -0.3533210000    -2.4516980000     2.3120060000 
 H        1.1309310000    -3.4056540000     2.0706200000 
*
