! RI PBE def2-SVP def2-SVP/J NBO PAL2
% maxcore 2000
% output
    # printlevel mini
    print[ P_Basis ] 0
    print[ P_SCFInfo ] 1
    print[ P_SCFIterInfo ] 1
    print[ P_OrbEn ] 0
    print[ P_Cartesian ] 0
end
*xyz 0 1
 C        1.8682180000     0.0788820000    -0.7480770000 
 N        1.7716050000    -0.1856210000     0.6886870000 
 C        0.5507150000    -0.0121750000    -0.0937780000 
 C       -0.3346690000     1.2108920000     0.1293830000 
 C       -1.7487140000     0.7266380000    -0.1906180000 
 C       -1.7226510000    -0.7393050000     0.2357000000 
 C       -0.3615830000    -1.2199530000    -0.2626730000 
 H        2.2361440000    -0.7533070000    -1.3410190000 
 H        2.2101300000     1.0563570000    -1.0762170000 
 H        1.9719330000     0.6633310000     1.2084080000 
 H       -0.0272150000     2.0726480000    -0.4672810000 
 H       -0.2805320000     1.5060370000     1.1840870000 
 H       -1.9324970000     0.7922570000    -1.2682740000 
 H       -2.5227270000     1.3123150000     0.3096050000 
 H       -2.5576140000    -1.3197970000    -0.1618460000 
 H       -1.7673360000    -0.8054500000     1.3280980000 
 H       -0.4296170000    -1.4860920000    -1.3229760000 
 H        0.0290100000    -2.0855470000     0.2741920000 
*
