! RI PBE def2-SVP def2-SVP/J NBO PAL2
% maxcore 2000
% output
    # printlevel mini
    print[ P_Basis ] 0
    print[ P_SCFInfo ] 1
    print[ P_SCFIterInfo ] 1
    print[ P_OrbEn ] 0
    print[ P_Cartesian ] 0
end
*xyz 0 1
 C       -0.0813410000     1.4423810000     0.5739950000 
 C       -1.4052580000     0.7341060000     0.2776820000 
 C       -1.5281260000    -0.4935170000    -0.2537780000 
 C       -0.3686260000    -1.4422200000    -0.5666220000 
 C        0.7336380000    -0.8115460000     0.2406780000 
 N        2.0594120000    -0.2061400000     0.0895630000 
 C        0.8637620000     0.5815260000    -0.2055100000 
 H        0.1288850000     1.4500070000     1.6485190000 
 H       -0.1300600000     2.4852380000     0.2422280000 
 H       -2.3165390000     1.2909240000     0.4799640000 
 H       -2.5320500000    -0.8667410000    -0.4396480000 
 H       -0.1644170000    -1.4672930000    -1.6431160000 
 H       -0.6228540000    -2.4629750000    -0.2617600000 
 H        0.5258380000    -0.9121810000     1.3032840000 
 H        2.5202310000    -0.4230570000    -0.7886300000 
 H        0.6764140000     0.6889680000    -1.2735480000 
*
