! RI PBE def2-SVP def2-SVP/J NBO PAL2
% maxcore 2000
% output
    # printlevel mini
    print[ P_Basis ] 0
    print[ P_SCFInfo ] 1
    print[ P_SCFIterInfo ] 1
    print[ P_OrbEn ] 0
    print[ P_Cartesian ] 0
end
*xyz 0 1
 C       -1.3757720000     0.6695790000     0.1640090000 
 C       -1.4922010000    -0.8082650000    -0.1661990000 
 C       -0.2770300000    -1.5884920000     0.1864040000 
 C        0.9516630000    -1.1019520000     0.4018740000 
 C        1.4722040000     0.2469820000     0.2455740000 
 N        0.9459150000     1.3226120000    -0.2184040000 
 N       -0.3469650000     1.3673380000    -0.5822610000 
 H       -1.1951660000     0.7812910000     1.2422130000 
 H       -2.3197350000     1.1691510000    -0.0655380000 
 H       -1.7295790000    -0.9251710000    -1.2288460000 
 H       -2.3499910000    -1.2227900000     0.3788890000 
 H       -0.4191070000    -2.6567630000     0.3265110000 
 H        1.7135530000    -1.8171690000     0.7004300000 
 H        2.5261150000     0.3628620000     0.4847250000 
 H       -0.5920060000     2.3227290000    -0.7870600000 
*
