! RI PBE def2-SVP def2-SVP/J NBO PAL2
% maxcore 2000
% output
    # printlevel mini
    print[ P_Basis ] 0
    print[ P_SCFInfo ] 1
    print[ P_SCFIterInfo ] 1
    print[ P_OrbEn ] 0
    print[ P_Cartesian ] 0
end
*xyz 0 1
 C        2.0137460000    -0.2412360000    -0.0582360000 
 C        0.6855520000    -0.8663910000     0.2068740000 
 C       -0.4534190000    -1.5252700000    -0.5099810000 
 C       -1.5948360000    -0.5636370000    -0.2008800000 
 C       -1.4299600000     0.6781050000     0.2702130000 
 C       -0.0735590000     1.3388970000     0.4419120000 
 N        0.7958750000     0.4737250000    -0.2972990000 
 H        2.5914140000    -0.4362180000    -0.9568880000 
 H        2.6116090000    -0.0524240000     0.8356300000 
 H        0.5165180000    -0.9103510000     1.2905810000 
 H       -0.6941180000    -2.5248010000    -0.1328780000 
 H       -0.2830090000    -1.6022050000    -1.5879590000 
 H       -2.6072650000    -0.9369040000    -0.3279070000 
 H       -2.3052630000     1.2724440000     0.5146980000 
 H        0.1809490000     1.4376770000     1.5135040000 
 H       -0.0896440000     2.3468780000     0.0130350000 
*
