! RI PBE def2-SVP def2-SVP/J NBO PAL2
% maxcore 2000
% output
    # printlevel mini
    print[ P_Basis ] 0
    print[ P_SCFInfo ] 1
    print[ P_SCFIterInfo ] 1
    print[ P_OrbEn ] 0
    print[ P_Cartesian ] 0
end
*xyz 0 1
 C       -1.4701500000     0.6741370000     0.2115880000 
 C       -1.4224450000    -0.7868660000    -0.2369000000 
 C       -0.2690930000    -1.5359310000     0.3408790000 
 C        0.9907380000    -1.0877170000     0.4270270000 
 N        1.5603690000     0.0838990000    -0.0365810000 
 C        0.9249160000     1.1396000000    -0.3780430000 
 N       -0.3891170000     1.4624920000    -0.3302180000 
 H       -1.4672990000     0.7081960000     1.3056030000 
 H       -2.4005530000     1.1392490000    -0.1251290000 
 H       -1.4061060000    -0.8088430000    -1.3327240000 
 H       -2.3576240000    -1.2665010000     0.0661540000 
 H       -0.4673990000    -2.5226030000     0.7473790000 
 H        1.7244780000    -1.7504120000     0.8798820000 
 H        1.5237320000     1.9581450000    -0.7830340000 
 H       -0.6174570000     2.3865870000    -0.6515840000 
*
