! RI PBE def2-SVP def2-SVP/J NBO PAL2
% maxcore 2000
% output
    # printlevel mini
    print[ P_Basis ] 0
    print[ P_SCFInfo ] 1
    print[ P_SCFIterInfo ] 1
    print[ P_OrbEn ] 0
    print[ P_Cartesian ] 0
end
*xyz 0 1
 C        0.9508460000    -1.3484490000     0.0317410000 
 C       -0.5202780000    -1.5562890000     0.0229300000 
 C       -1.4682560000    -0.6240840000     0.0011500000 
 C       -1.3133880000     0.8261430000    -0.0190590000 
 N       -0.3119390000     1.6176400000    -0.0232530000 
 N        1.0269550000     1.2322550000    -0.0081860000 
 C        1.4965380000     0.0533250000     0.0136150000 
 H        1.3997320000    -1.8804650000    -0.8198460000 
 H        1.3857440000    -1.8529800000     0.9069900000 
 H       -0.8373300000    -2.5966190000     0.0360520000 
 H       -2.5020310000    -0.9570820000    -0.0021490000 
 H       -2.2618160000     1.3663420000    -0.0338450000 
 H        2.5909130000     0.0536520000     0.0210690000 
*
