! RI PBE def2-SVP def2-SVP/J NBO PAL2
% maxcore 2000
% output
    # printlevel mini
    print[ P_Basis ] 0
    print[ P_SCFInfo ] 1
    print[ P_SCFIterInfo ] 1
    print[ P_OrbEn ] 0
    print[ P_Cartesian ] 0
end
*xyz 0 1
 C       -0.2897130000    -1.3410580000    -0.2486120000 
 C        0.9253570000    -1.1474600000    -1.1073840000 
 C        0.7338220000    -0.3127890000     0.1194930000 
 C        1.6393530000    -0.4583820000     1.3159940000 
 C        0.9528450000    -0.2057260000     2.6767550000 
 C        1.0126810000    -1.7270710000     2.8859750000 
 N        1.9603290000    -1.8238620000     1.7658600000 
 H       -0.3445570000    -2.2475630000     0.3431740000 
 H       -1.2456610000    -1.0017030000    -0.6273940000 
 H        0.8059700000    -0.6797900000    -2.0766030000 
 H        1.6861740000    -1.9201850000    -1.0815980000 
 H        0.4454460000     0.7197720000    -0.0599770000 
 H        2.5402570000     0.1405930000     1.1361320000 
 H       -0.0382430000     0.2452380000     2.6336270000 
 H        1.5760750000     0.3508260000     3.3764280000 
 H        0.0459870000    -2.2161570000     2.7161310000 
 H        1.4162370000    -2.0798070000     3.8391450000 
 H        1.8005530000    -2.5697680000     1.1004660000 
*
