! RI PBE def2-SVP def2-SVP/J NBO PAL2
% maxcore 2000
% output
    # printlevel mini
    print[ P_Basis ] 0
    print[ P_SCFInfo ] 1
    print[ P_SCFIterInfo ] 1
    print[ P_OrbEn ] 0
    print[ P_Cartesian ] 0
end
*xyz 0 1
 C        0.2861190000    -1.2680370000    -1.0431440000 
 N        0.8244980000     0.0729360000    -0.8325750000 
 C        0.3978510000    -0.7112000000     0.3203670000 
 C        1.4813510000    -1.1583160000     1.2559260000 
 C        1.6805390000    -0.2463770000     2.4836230000 
 C        0.8760990000    -1.2935020000     3.2704760000 
 N        1.0937010000    -2.2482520000     2.1713380000 
 H        1.0129260000    -2.0000030000    -1.3809010000 
 H       -0.7035360000    -1.3729940000    -1.4763310000 
 H        0.1327670000     0.7755810000    -1.0664740000 
 H       -0.5363310000    -0.4237290000     0.8024060000 
 H        2.3789530000    -1.3716950000     0.6660660000 
 H        1.2677200000     0.7599010000     2.4149680000 
 H        2.7220000000    -0.1876620000     2.7977830000 
 H       -0.1703650000    -0.9981310000     3.4185630000 
 H        1.2824980000    -1.6157250000     4.2328410000 
 H        0.2882090000    -2.7905740000     1.8834470000 
*
