! RI PBE def2-SVP def2-SVP/J NBO PAL2
% maxcore 2000
% output
    # printlevel mini
    print[ P_Basis ] 0
    print[ P_SCFInfo ] 1
    print[ P_SCFIterInfo ] 1
    print[ P_OrbEn ] 0
    print[ P_Cartesian ] 0
end
*xyz 0 1
 C        0.9908180000    -0.0220510000     0.0888690000 
 C        0.3384510000     0.9809570000     1.0074250000 
 C        0.7287670000     1.0821910000     2.4226640000 
 N        1.0579860000     2.1554040000     1.4815190000 
 N        2.4146510000    -0.1403180000     0.3291290000 
 C        3.1530230000    -0.8996190000    -0.6554250000 
 C        3.2851770000     0.5703400000    -0.5919070000 
 H        0.7821680000     0.2502510000    -0.9602560000 
 H        0.5330930000    -1.0026970000     0.2604610000 
 H       -0.6985350000     1.1846890000     0.7512290000 
 H        1.5368690000     0.4403240000     2.7568980000 
 H       -0.0117090000     1.3387870000     3.1725490000 
 H        2.0372170000     2.0666170000     1.2293480000 
 H        2.5968280000    -1.3105010000    -1.4947060000 
 H        3.9396840000    -1.5387670000    -0.2696300000 
 H        2.8145970000     1.1480410000    -1.3838400000 
 H        4.1714130000     1.0206440000    -0.1575350000 
*
