! RI PBE def2-SVP def2-SVP/J NBO PAL2
% maxcore 2000
% output
    # printlevel mini
    print[ P_Basis ] 0
    print[ P_SCFInfo ] 1
    print[ P_SCFIterInfo ] 1
    print[ P_OrbEn ] 0
    print[ P_Cartesian ] 0
end
*xyz 0 1
 C       -1.7175890000     0.7990890000     0.4494810000 
 C       -1.1104060000    -0.3358480000    -0.2761940000 
 C       -0.2806290000    -1.3719700000     0.4454410000 
 N        1.1106880000    -1.3617650000     0.0094920000 
 C        1.6903540000    -0.0197420000    -0.1092930000 
 C        0.7482810000     1.0556840000     0.4094490000 
 N       -0.5076470000     0.9978560000    -0.3248380000 
 H       -1.6310090000     0.7988920000     1.5345620000 
 H       -2.6056070000     1.2878140000     0.0631800000 
 H       -1.5536540000    -0.6501950000    -1.2187190000 
 H       -0.6838850000    -2.3731100000     0.2809850000 
 H       -0.3186430000    -1.2027970000     1.5257340000 
 H        1.1884380000    -1.8460490000    -0.8725250000 
 H        1.9229430000     0.2095270000    -1.1556010000 
 H        2.6315270000     0.0357420000     0.4499650000 
 H        1.2010310000     2.0388910000     0.2592340000 
 H        0.6038190000     0.9321910000     1.4922570000 
*
