! RI PBE def2-SVP def2-SVP/J NBO PAL2
% maxcore 2000
% output
    # printlevel mini
    print[ P_Basis ] 0
    print[ P_SCFInfo ] 1
    print[ P_SCFIterInfo ] 1
    print[ P_OrbEn ] 0
    print[ P_Cartesian ] 0
end
*xyz 0 1
 C       -0.8211290000    -0.0234710000    -1.1617210000 
 C       -0.5915260000     1.0774580000    -0.1021920000 
 C       -1.1502060000     0.0291120000     0.8597110000 
 N       -0.6647680000    -1.0374060000    -0.0698530000 
 C        0.7674160000    -1.2101930000     0.1965850000 
 C        1.5994700000     0.0573580000    -0.0698740000 
 N        0.8189870000     1.2643690000     0.2108620000 
 H       -0.1282890000    -0.1155040000    -2.0012450000 
 H       -1.8465750000    -0.0467820000    -1.5369450000 
 H       -1.0834770000     2.0480770000    -0.1984460000 
 H       -2.2419050000     0.0109330000     0.9064820000 
 H       -0.7258250000     0.0015800000     1.8655830000 
 H        1.1512750000    -2.0238300000    -0.4259810000 
 H        0.8635900000    -1.5312860000     1.2371910000 
 H        1.9361710000     0.0341040000    -1.1156740000 
 H        2.5021260000     0.0502080000     0.5477740000 
 H        1.1937560000     2.0396710000    -0.3192670000 
*
