! RI PBE def2-SVP def2-SVP/J NBO PAL2
% maxcore 2000
% output
    # printlevel mini
    print[ P_Basis ] 0
    print[ P_SCFInfo ] 1
    print[ P_SCFIterInfo ] 1
    print[ P_OrbEn ] 0
    print[ P_Cartesian ] 0
end
*xyz 0 1
 C        1.8093420000    -0.2203010000    -0.9894120000 
 C        2.3460570000     0.0421860000     0.4563330000 
 C        2.8160390000     1.3667860000    -0.1000580000 
 C        3.4029370000     2.6084340000    -0.1082880000 
 C        3.2427570000     3.0746360000    -1.4463640000 
 C        2.5767480000     2.1216740000    -2.1962320000 
 N        2.3369690000     1.0986480000    -1.3342750000 
 H        0.7239300000    -0.2998890000    -1.0797100000 
 H        2.2882630000    -1.0422920000    -1.5256710000 
 H        3.1278570000    -0.6469900000     0.7806410000 
 H        1.5719260000     0.0913730000     1.2242200000 
 H        3.8828460000     3.1327080000     0.7024670000 
 H        3.5855670000     4.0253310000    -1.8265060000 
 H        2.2788700000     2.1159970000    -3.2317560000 
*
