! RI PBE def2-SVP def2-SVP/J NBO PAL2
% maxcore 2000
% output
    # printlevel mini
    print[ P_Basis ] 0
    print[ P_SCFInfo ] 1
    print[ P_SCFIterInfo ] 1
    print[ P_OrbEn ] 0
    print[ P_Cartesian ] 0
end
*xyz 0 1
 C        1.5912330000    -0.6638770000     0.7301260000 
 C        2.2698900000     0.3448080000    -0.2498830000 
 C        2.8957480000     0.9389240000     0.9947900000 
 C        3.6436250000     1.7555270000     1.8002430000 
 N        3.4746350000     1.3395730000     3.0973030000 
 C        2.6565010000     0.3094620000     3.0905470000 
 N        2.2893240000     0.0462940000     1.8146590000 
 H        1.8999720000    -1.7045090000     0.6241700000 
 H        0.5047110000    -0.5974640000     0.7973710000 
 H        1.5753450000     0.9915550000    -0.7873480000 
 H        2.9626450000    -0.1091300000    -0.9595130000 
 H        4.2777910000     2.5928450000     1.5573860000 
 H        2.3250810000    -0.2435980000     3.9554590000 
*
