! RI PBE def2-SVP def2-SVP/J NBO PAL2
% maxcore 2000
% output
    # printlevel mini
    print[ P_Basis ] 0
    print[ P_SCFInfo ] 1
    print[ P_SCFIterInfo ] 1
    print[ P_OrbEn ] 0
    print[ P_Cartesian ] 0
end
*xyz 0 1
 C        1.6834540000    -0.1904820000     0.3689640000 
 C        0.8127770000    -1.4264600000     0.0688940000 
 N       -0.2481360000    -0.5463260000    -0.4936110000 
 C       -1.2730760000    -0.1825450000     0.3789410000 
 N       -1.3312330000     1.0185210000     0.7851250000 
 C       -0.1705170000     1.7172750000     0.2310610000 
 C        0.6674010000     0.6295440000    -0.4483220000 
 H        2.7083240000    -0.2139670000    -0.0015820000 
 H        1.6902790000     0.0823560000     1.4259970000 
 H        0.4926590000    -2.0282740000     0.9223930000 
 H        1.2234750000    -2.0855580000    -0.6980030000 
 H       -2.0033920000    -0.9350590000     0.6664590000 
 H        0.3659440000     2.2428520000     1.0279420000 
 H       -0.5075780000     2.4739710000    -0.4843210000 
 H        1.0276270000     0.9135730000    -1.4385270000 
*
