! RI PBE def2-SVP def2-SVP/J NBO PAL2
% maxcore 2000
% output
    # printlevel mini
    print[ P_Basis ] 0
    print[ P_SCFInfo ] 1
    print[ P_SCFIterInfo ] 1
    print[ P_OrbEn ] 0
    print[ P_Cartesian ] 0
end
*xyz 0 1
 C        1.3856040000    -0.7059150000    -0.3712870000 
 C        2.5355700000     0.2565980000     0.0932750000 
 C        3.1625570000    -0.0404210000    -1.2542410000 
 C        4.0434230000    -0.0307900000    -2.3158780000 
 C        3.4092160000    -0.9024300000    -3.2355840000 
 N        2.2502440000    -1.4065360000    -2.7961310000 
 N        2.1616090000    -0.8477770000    -1.5990310000 
 H        0.4090820000    -0.2407320000    -0.5162560000 
 H        1.2845990000    -1.6315680000     0.1978910000 
 H        3.0937530000    -0.0932390000     0.9623580000 
 H        2.2233740000     1.2892430000     0.2527470000 
 H        4.9765060000     0.4915810000    -2.4429690000 
 H        3.7619710000    -1.1842320000    -4.2169940000 
*
