! RI PBE def2-SVP def2-SVP/J NBO PAL2
% maxcore 2000
% output
    # printlevel mini
    print[ P_Basis ] 0
    print[ P_SCFInfo ] 1
    print[ P_SCFIterInfo ] 1
    print[ P_OrbEn ] 0
    print[ P_Cartesian ] 0
end
*xyz 0 1
 C        0.2530060000    -1.6116990000    -1.1058550000 
 C        0.8824650000    -0.2531400000    -1.0254320000 
 C        0.2326530000    -0.8510720000     0.1824570000 
 N        1.0680560000    -1.3003150000     1.2346090000 
 C        1.4111180000    -0.3716980000     2.3191630000 
 C        1.3471370000    -1.5513370000     3.3005860000 
 C        0.5349780000    -2.2620760000     2.2078370000 
 H        0.9181800000    -2.4643300000    -1.1532930000 
 H       -0.6759590000    -1.7195280000    -1.6513950000 
 H        0.3874890000     0.5757640000    -1.5154600000 
 H        1.9639250000    -0.2073290000    -1.0196550000 
 H       -0.7306000000    -0.4224650000     0.4799710000 
 H        0.6153080000     0.3644050000     2.5127650000 
 H        2.3597660000     0.1570700000     2.1961590000 
 H        0.8603360000    -1.3821850000     4.2592880000 
 H        2.3218600000    -2.0123990000     3.4585330000 
 H       -0.5489440000    -2.1475970000     2.3648120000 
 H        0.7523050000    -3.3112590000     1.9918890000 
*
