! RI PBE def2-SVP def2-SVP/J NBO PAL2
% maxcore 2000
% output
    # printlevel mini
    print[ P_Basis ] 0
    print[ P_SCFInfo ] 1
    print[ P_SCFIterInfo ] 1
    print[ P_OrbEn ] 0
    print[ P_Cartesian ] 0
end
*xyz 0 1
 C        1.9559510000     0.0397430000    -0.5756050000 
 C        1.6206390000    -0.1290660000     0.8820080000 
 C        0.5352350000     0.0434950000    -0.1370030000 
 C       -0.3500150000     1.2877340000    -0.1364310000 
 C       -1.7773250000     0.7218120000     0.0044270000 
 C       -1.5600320000    -0.7865540000     0.2116480000 
 N       -0.2858240000    -1.1098130000    -0.4222510000 
 H        2.3122960000    -0.8333650000    -1.1088450000 
 H        2.3898010000     0.9795480000    -0.8963880000 
 H        1.8315470000     0.6970640000     1.5509370000 
 H        1.7406680000    -1.1175490000     1.3069970000 
 H       -0.2401740000     1.8456060000    -1.0704800000 
 H       -0.0900170000     1.9670390000     0.6781210000 
 H       -2.3500620000     0.8978900000    -0.9097060000 
 H       -2.3341690000     1.1778380000     0.8255370000 
 H       -2.3636790000    -1.4033230000    -0.1943540000 
 H       -1.4767770000    -1.0123400000     1.2796630000 
 H       -0.4234610000    -1.1717480000    -1.4268560000 
*
