! RI PBE def2-SVP def2-SVP/J NBO PAL2
% maxcore 2000
% output
    # printlevel mini
    print[ P_Basis ] 0
    print[ P_SCFInfo ] 1
    print[ P_SCFIterInfo ] 1
    print[ P_OrbEn ] 0
    print[ P_Cartesian ] 0
end
*xyz 0 1
 C       -1.6712500000     0.8752390000     0.5068500000 
 C       -1.1150640000    -0.2606370000    -0.2977650000 
 C       -0.3118200000    -1.3692300000     0.3403270000 
 C        1.1033260000    -1.3704560000    -0.2411920000 
 C        1.7511010000     0.0302550000    -0.1757260000 
 N        0.8279400000     0.9875860000     0.4166740000 
 C       -0.4121090000     1.0646920000    -0.2857010000 
 H       -1.5618820000     0.8316550000     1.5838220000 
 H       -2.5742300000     1.3557650000     0.1500620000 
 H       -1.6483160000    -0.5204960000    -1.2059430000 
 H       -0.7859500000    -2.3395730000     0.1706770000 
 H       -0.2664760000    -1.2216240000     1.4211250000 
 H        1.0538700000    -1.7013530000    -1.2824700000 
 H        1.7237870000    -2.1011700000     0.2842180000 
 H        2.0767260000     0.3307450000    -1.1848920000 
 H        2.6477470000     0.0052380000     0.4491680000 
 H        1.2559950000     1.8920180000     0.5493220000 
 H       -0.4634950000     1.6782450000    -1.1870670000 
*
