! RI PBE def2-SVP def2-SVP/J NBO PAL2
% maxcore 2000
% output
    # printlevel mini
    print[ P_Basis ] 0
    print[ P_SCFInfo ] 1
    print[ P_SCFIterInfo ] 1
    print[ P_OrbEn ] 0
    print[ P_Cartesian ] 0
end
*xyz 0 1
 C       -1.4112990000     0.7534370000     0.7447920000 
 C       -1.1502160000    -0.2769090000    -0.3315250000 
 N       -0.3129000000    -1.3936410000     0.0167790000 
 C        1.0766910000    -1.2409290000    -0.3661880000 
 C        1.6081190000     0.0344960000     0.2660390000 
 N        0.9310760000     1.2298270000    -0.2222610000 
 C       -0.4912140000     1.0741720000    -0.3883910000 
 H       -0.9747120000     0.5213290000     1.7084030000 
 H       -2.3669060000     1.2632300000     0.7820410000 
 H       -1.9460690000    -0.4833710000    -1.0424890000 
 H       -0.7069200000    -2.2620820000    -0.3085380000 
 H        1.2317140000    -1.1861360000    -1.4594870000 
 H        1.6356820000    -2.1047730000     0.0047200000 
 H        2.6767560000     0.1482590000     0.0700780000 
 H        1.4815930000    -0.0352300000     1.3513550000 
 H        1.3179900000     1.4638090000    -1.1282230000 
 H       -0.8848760000     1.7715020000    -1.1191040000 
*
