! RI PBE def2-SVP def2-SVP/J NBO PAL2
% maxcore 2000
% output
    # printlevel mini
    print[ P_Basis ] 0
    print[ P_SCFInfo ] 1
    print[ P_SCFIterInfo ] 1
    print[ P_OrbEn ] 0
    print[ P_Cartesian ] 0
end
*xyz 0 1
 C        0.8039790000    -1.2507840000     0.5184840000 
 C        1.6799170000    -0.1105430000    -0.0050690000 
 N        0.9893320000     1.0611900000    -0.5058810000 
 C       -0.1187830000     1.5360930000     0.2968160000 
 C       -1.4043710000     0.7582780000     0.1836520000 
 C       -1.5345220000    -0.5259150000    -0.1399600000 
 C       -0.4278460000    -1.5235640000    -0.3378850000 
 H        0.4684510000    -1.0254820000     1.5361330000 
 H        1.4195890000    -2.1539700000     0.5922340000 
 H        2.3077650000    -0.4797050000    -0.8221590000 
 H        2.3677880000     0.1990560000     0.7912670000 
 H        0.6655450000     0.8975900000    -1.4499960000 
 H       -0.3292390000     2.5732020000     0.0113540000 
 H        0.2091360000     1.5896280000     1.3432180000 
 H       -2.3132140000     1.3348300000     0.3448170000 
 H       -2.5444110000    -0.9154290000    -0.2433700000 
 H       -0.1479160000    -1.5815820000    -1.3994350000 
 H       -0.8228890000    -2.5144910000    -0.0939100000 
*
