! RI PBE def2-SVP def2-SVP/J NBO PAL2
% maxcore 2000
% output
    # printlevel mini
    print[ P_Basis ] 0
    print[ P_SCFInfo ] 1
    print[ P_SCFIterInfo ] 1
    print[ P_OrbEn ] 0
    print[ P_Cartesian ] 0
end
*xyz 0 1
 C        2.1081680000    -0.1787070000    -0.0390250000 
 C        0.7875180000    -0.8579580000     0.1648440000 
 C       -0.4079190000    -1.4096040000    -0.5484320000 
 C       -1.4936930000    -0.4313280000    -0.0684870000 
 N       -1.3474760000     0.7027450000     0.5114810000 
 N       -0.0822560000     1.2317840000     0.7362690000 
 C        0.8335010000     0.6079840000    -0.1473710000 
 H        2.6591490000    -0.2443210000    -0.9707180000 
 H        2.7306330000    -0.1385010000     0.8468650000 
 H        0.6408100000    -0.9752020000     1.2362620000 
 H       -0.6803350000    -2.4263840000    -0.2449540000 
 H       -0.3309900000    -1.4087000000    -1.6402140000 
 H       -2.5320020000    -0.7450600000    -0.1554160000 
 H       -0.1588720000     2.2388870000     0.7198050000 
 H        0.5968670000     0.7979640000    -1.1973000000 
*
