! RI PBE def2-SVP def2-SVP/J NBO PAL2
% maxcore 2000
% output
    # printlevel mini
    print[ P_Basis ] 0
    print[ P_SCFInfo ] 1
    print[ P_SCFIterInfo ] 1
    print[ P_OrbEn ] 0
    print[ P_Cartesian ] 0
end
*xyz 0 1
 C       -2.6499090000     0.2853760000     0.5948650000 
 N       -2.3723010000     0.1766150000    -0.8377430000 
 C       -1.2645340000     0.1665530000     0.1135990000 
 C       -0.4539510000    -1.1214600000     0.1880930000 
 C        0.9431190000    -0.6543270000    -0.0843610000 
 C        1.0371650000     0.6710410000    -0.0996420000 
 C       -0.2821020000     1.3330680000     0.1618100000 
 H       -3.1496390000    -0.5746640000     1.0301680000 
 H       -2.9697940000     1.2442800000     0.9932620000 
 H       -2.4499280000     1.0884070000    -1.2769640000 
 H       -0.8206190000    -1.8482880000    -0.5422940000 
 H       -0.5257320000    -1.5926860000     1.1765480000 
 H        1.7743370000    -1.3344400000    -0.2299800000 
 H        1.9533530000     1.2280830000    -0.2566590000 
 H       -0.5269580000     2.1021380000    -0.5804120000 
 H       -0.2860060000     1.8316340000     1.1395090000 
*
