! RI PBE def2-SVP def2-SVP/J NBO PAL2
% maxcore 2000
% output
    # printlevel mini
    print[ P_Basis ] 0
    print[ P_SCFInfo ] 1
    print[ P_SCFIterInfo ] 1
    print[ P_OrbEn ] 0
    print[ P_Cartesian ] 0
end
*xyz 0 1
 C        1.2509940000     0.0404330000     0.2260810000 
 C        0.8170080000     1.1452690000     1.1494080000 
 C        0.9071590000     2.5536190000     0.7201970000 
 N       -0.3946440000     1.9061880000     0.8702780000 
 C        2.6997710000    -0.3251180000     0.3962550000 
 C        3.0952650000    -1.3796710000     1.3487790000 
 N        3.1995800000    -1.6046220000    -0.0916710000 
 H        1.0695470000     0.3508110000    -0.8114210000 
 H        0.6349970000    -0.8508920000     0.4042870000 
 H        0.9513220000     0.9309220000     2.2068870000 
 H        1.2780820000     2.7478660000    -0.2823150000 
 H        1.1169250000     3.3351930000     1.4421380000 
 H       -0.7618150000     1.6498440000    -0.0408810000 
 H        3.3958540000     0.4941820000     0.2335820000 
 H        2.3024530000    -1.8812690000     1.8966780000 
 H        4.0423800000    -1.3184450000     1.8734510000 
 H        2.4257220000    -2.1795290000    -0.4100440000 
*
