! RI PBE def2-SVP def2-SVP/J NBO PAL2
% maxcore 2000
% output
    # printlevel mini
    print[ P_Basis ] 0
    print[ P_SCFInfo ] 1
    print[ P_SCFIterInfo ] 1
    print[ P_OrbEn ] 0
    print[ P_Cartesian ] 0
end
*xyz 0 1
 C        0.2732420000     1.5031990000     0.5292110000 
 N        1.1579940000     0.5372860000    -0.1427640000 
 C        0.2414250000    -0.3392930000    -0.9243360000 
 C       -0.7580290000     0.7009980000    -1.4215300000 
 C       -1.1396510000     1.1205730000     0.0077600000 
 C       -1.4426600000    -0.2219930000     0.6207560000 
 C       -0.6172520000    -1.1086820000     0.0581630000 
 H        0.5265380000     2.5244660000     0.2275670000 
 H        0.3354080000     1.4441380000     1.6194040000 
 H        1.6667430000    -0.0144660000     0.5352880000 
 H        0.7852630000    -0.9145100000    -1.6721260000 
 H       -1.5922830000     0.2629750000    -1.9686250000 
 H       -0.2853000000     1.4942380000    -2.0044850000 
 H       -1.8904720000     1.9001730000     0.1256900000 
 H       -2.1089540000    -0.3843970000     1.4589440000 
 H       -0.4748020000    -2.1451140000     0.3398030000 
*
