! RI PBE def2-SVP def2-SVP/J NBO PAL2
% maxcore 2000
% output
    # printlevel mini
    print[ P_Basis ] 0
    print[ P_SCFInfo ] 1
    print[ P_SCFIterInfo ] 1
    print[ P_OrbEn ] 0
    print[ P_Cartesian ] 0
end
*xyz 0 1
 C        0.8023670000    -1.2052390000     0.8957880000 
 C        1.1110600000    -0.3900520000    -0.3020390000 
 N        0.9810260000     1.0362850000    -0.3020330000 
 C       -0.1792170000     1.5345600000     0.4344930000 
 C       -1.4402490000     0.7791100000     0.1294240000 
 C       -1.4025710000    -0.5062040000    -0.2244310000 
 C       -0.1396050000    -1.2574160000    -0.2931660000 
 H        0.4284010000    -0.7190680000     1.7879180000 
 H        1.4208900000    -2.0738600000     1.0846060000 
 H        1.9339850000    -0.7288020000    -0.9215380000 
 H        0.8877690000     1.3331640000    -1.2673020000 
 H       -0.2984560000     2.5920170000     0.1847810000 
 H        0.0479470000     1.5114760000     1.5069830000 
 H       -2.3869920000     1.3083620000     0.1717180000 
 H       -2.3183390000    -1.0249320000    -0.4911790000 
 H       -0.1436150000    -2.1717110000    -0.8750230000 
*
