! RI PBE def2-SVP def2-SVP/J NBO PAL2
% maxcore 2000
% output
    # printlevel mini
    print[ P_Basis ] 0
    print[ P_SCFInfo ] 1
    print[ P_SCFIterInfo ] 1
    print[ P_OrbEn ] 0
    print[ P_Cartesian ] 0
end
*xyz 0 1
 C        1.5499750000    -0.2949260000     0.3901540000 
 N        0.8563530000    -1.5272590000    -0.0267150000 
 C       -0.2071280000    -0.7328330000    -0.6777940000 
 C       -1.3907670000    -0.3595170000     0.1649420000 
 C       -1.3537260000     0.9119730000     0.5541420000 
 C       -0.1540100000     1.6477720000     0.0268220000 
 C        0.6861850000     0.5298160000    -0.5842720000 
 H        2.6269520000    -0.3137810000     0.2021710000 
 H        1.3797520000    -0.0028080000     1.4337390000 
 H        0.5418230000    -2.1209150000     0.7316680000 
 H       -0.4913160000    -1.1231300000    -1.6610090000 
 H       -2.1793750000    -1.0614510000     0.4154630000 
 H       -2.1056830000     1.3889180000     1.1740390000 
 H        0.3843240000     2.1858010000     0.8156100000 
 H       -0.4489170000     2.4012760000    -0.7134560000 
 H        1.2067680000     0.8093750000    -1.4989040000 
*
