! RI PBE def2-SVP def2-SVP/J NBO PAL2
% maxcore 2000
% output
    # printlevel mini
    print[ P_Basis ] 0
    print[ P_SCFInfo ] 1
    print[ P_SCFIterInfo ] 1
    print[ P_OrbEn ] 0
    print[ P_Cartesian ] 0
end
*xyz 0 1
 C       -1.1978810000    -0.7236480000    -0.5171590000 
 N       -1.1908440000     0.7599980000    -0.4962140000 
 C       -0.0188700000     1.0941330000     0.3260430000 
 C        1.2134910000     0.7283860000    -0.5093790000 
 N        1.2064250000    -0.7553740000    -0.4995540000 
 C        0.0328560000    -1.0956460000     0.3178970000 
 C        0.0059530000    -0.0047610000     1.3916280000 
 H       -1.0951960000    -1.1032930000    -1.5359370000 
 H       -2.1160790000    -1.1306170000    -0.0827970000 
 H       -2.0267690000     1.0995130000    -0.0379640000 
 H       -0.0435330000     2.1310070000     0.6602390000 
 H        2.1308410000     1.1320860000    -0.0701970000 
 H        1.1127860000     1.1156480000    -1.5254840000 
 H        2.0414590000    -1.0983170000    -0.0422340000 
 H        0.0568760000    -2.1349940000     0.6443690000 
 H        0.8999370000    -0.0091710000     2.0204890000 
 H       -0.8892530000    -0.0050510000     2.0187640000 
*
