! RI PBE def2-SVP def2-SVP/J NBO PAL2
% maxcore 2000
% output
    # printlevel mini
    print[ P_Basis ] 0
    print[ P_SCFInfo ] 1
    print[ P_SCFIterInfo ] 1
    print[ P_OrbEn ] 0
    print[ P_Cartesian ] 0
end
*xyz 0 1
 C        1.6448570000    -0.7088150000     0.5317760000 
 N        2.1196020000     0.6220670000    -0.0056050000 
 C        3.0726450000     0.6401790000     1.0628800000 
 C        4.0238180000     1.2379830000     1.8412670000 
 N        4.1313540000     0.3998330000     2.9400360000 
 C        3.2795380000    -0.6772420000     2.8625730000 
 C        2.6228050000    -0.5315970000     1.6733890000 
 H        1.8497390000    -1.5504630000    -0.1351950000 
 H        0.5829410000    -0.6897000000     0.7841110000 
 H        2.5107360000     0.5763450000    -0.9396900000 
 H        4.6287710000     2.1253770000     1.7574320000 
 H        4.8096200000     0.5231640000     3.6687280000 
 H        3.2527750000    -1.4127230000     3.6506880000 
*
