! RI PBE def2-SVP def2-SVP/J NBO PAL2
% maxcore 2000
% output
    # printlevel mini
    print[ P_Basis ] 0
    print[ P_SCFInfo ] 1
    print[ P_SCFIterInfo ] 1
    print[ P_OrbEn ] 0
    print[ P_Cartesian ] 0
end
*xyz 0 1
 C       -1.1826800000     0.0000790000     0.9904100000 
 C       -0.6494890000    -1.0177090000    -0.0260950000 
 C        0.8477120000    -1.2321800000     0.2124960000 
 N        1.6103400000    -0.0016870000     0.0259490000 
 C        0.8506170000     1.2300040000     0.2164040000 
 C       -0.6470840000     1.0198260000    -0.0228620000 
 N       -0.8848780000     0.0030030000    -1.0738370000 
 H       -0.7469430000    -0.0020240000     1.9910490000 
 H       -2.2707800000     0.0012780000     1.0442990000 
 H       -1.1850270000    -1.9623270000    -0.1534300000 
 H        1.2412570000    -1.9866860000    -0.4752080000 
 H        0.9914310000    -1.6267980000     1.2276650000 
 H        2.0404790000    -0.0007500000    -0.8843140000 
 H        1.2459450000     1.9857580000    -0.4689050000 
 H        0.9952650000     1.6210590000     1.2328190000 
 H       -1.1803900000     1.9661050000    -0.1471960000 
 H       -0.1859760000     0.0033510000    -1.8132240000 
*
