! RI PBE def2-SVP def2-SVP/J NBO PAL2
% maxcore 2000
% output
    # printlevel mini
    print[ P_Basis ] 0
    print[ P_SCFInfo ] 1
    print[ P_SCFIterInfo ] 1
    print[ P_OrbEn ] 0
    print[ P_Cartesian ] 0
end
*xyz 0 1
 C       -1.7867690000     0.6209920000     0.2927050000 
 N       -1.7487250000    -0.7651330000    -0.3015370000 
 C       -0.2864090000    -0.7276280000     0.0245110000 
 C        1.0240320000    -1.0729630000    -0.6364640000 
 N        1.8797220000    -0.0378090000     0.0157170000 
 C        1.0631590000     1.0835450000     0.5794430000 
 C       -0.2830650000     0.7701170000    -0.0289630000 
 H       -2.0053900000     0.5439500000     1.3603840000 
 H       -2.4878730000     1.3123880000    -0.1770090000 
 H       -1.8608020000    -0.6644220000    -1.3085810000 
 H       -0.2222380000    -1.0519050000     1.0715710000 
 H        0.9662910000    -0.9573450000    -1.7269400000 
 H        1.4091020000    -2.0702010000    -0.4101550000 
 H        2.5762580000     0.3098340000    -0.6251710000 
 H        1.4923730000     2.0467970000     0.2945640000 
 H        1.0525390000     1.0263300000     1.6731010000 
 H       -0.2375860000     1.0451630000    -1.0918780000 
*
