! RI PBE def2-SVP def2-SVP/J NBO PAL2
% maxcore 2000
% output
    # printlevel mini
    print[ P_Basis ] 0
    print[ P_SCFInfo ] 1
    print[ P_SCFIterInfo ] 1
    print[ P_OrbEn ] 0
    print[ P_Cartesian ] 0
end
*xyz 0 1
 C        1.3858370000    -0.1584700000    -0.5129950000 
 C        2.7852990000     0.0870020000    -0.0373890000 
 C        3.5783340000    -0.9882540000     0.6420230000 
 C        4.0091540000    -0.4627060000    -0.7046370000 
 C        5.0379590000     0.6553980000    -0.7308410000 
 C        4.2048100000     1.9117120000    -0.4713000000 
 N        3.1224440000     1.4362150000     0.3891980000 
 H        1.2603020000    -1.1940600000    -0.8355330000 
 H        1.1342450000     0.4921770000    -1.3566800000 
 H        0.6619020000     0.0255340000     0.2875960000 
 H        3.1649590000    -1.9904940000     0.6755130000 
 H        4.1597320000    -0.6942320000     1.5082450000 
 H        3.9227960000    -1.1211560000    -1.5609430000 
 H        5.5579450000     0.7089640000    -1.6888560000 
 H        5.7934030000     0.5188860000     0.0483600000 
 H        3.8359020000     2.3093540000    -1.4305280000 
 H        4.7748920000     2.7036570000     0.0218120000 
 H        2.3137940000     2.0410720000     0.3590530000 
*
