! RI PBE def2-SVP def2-SVP/J NBO PAL2
% maxcore 2000
% output
    # printlevel mini
    print[ P_Basis ] 0
    print[ P_SCFInfo ] 1
    print[ P_SCFIterInfo ] 1
    print[ P_OrbEn ] 0
    print[ P_Cartesian ] 0
end
*xyz 0 1
 C        1.3195970000     0.2350680000     0.4851690000 
 C        2.6554110000    -0.0883150000    -0.1059760000 
 C        3.4549210000     0.9079590000    -0.8972730000 
 C        4.0144960000     0.3786320000     0.3956130000 
 N        4.9324870000    -0.7220540000     0.3019680000 
 C        4.2669630000    -1.6834430000    -0.2127640000 
 N        2.9266430000    -1.4678140000    -0.3992950000 
 H        1.2875520000     1.2794010000     0.8007760000 
 H        1.1163090000    -0.3945520000     1.3546770000 
 H        0.5136450000     0.0887130000    -0.2411800000 
 H        3.0966070000     1.9298590000    -0.8825740000 
 H        3.9309120000     0.5921260000    -1.8189260000 
 H        4.1372510000     1.0533190000     1.2342210000 
 H        4.6982120000    -2.6479240000    -0.4610090000 
 H        2.3897860000    -1.9874660000    -1.0728270000 
*
