! RI PBE def2-SVP def2-SVP/J NBO PAL2
% maxcore 2000
% output
    # printlevel mini
    print[ P_Basis ] 0
    print[ P_SCFInfo ] 1
    print[ P_SCFIterInfo ] 1
    print[ P_OrbEn ] 0
    print[ P_Cartesian ] 0
end
*xyz 0 1
 C        1.1026490000    -0.0973030000    -0.0864070000 
 C        2.5875220000     0.0994460000    -0.1175280000 
 C        3.5030440000    -0.5094570000    -1.2015010000 
 C        4.5310440000    -0.3229930000    -0.0761570000 
 C        4.6495470000     1.2047930000     0.0139050000 
 C        3.1378410000     1.5353330000    -0.0165700000 
 N        3.4253120000    -0.6643600000     0.8547440000 
 H        0.6275490000     0.4185720000    -0.9252510000 
 H        0.6752450000     0.3062930000     0.8365800000 
 H        0.8513590000    -1.1579300000    -0.1425300000 
 H        3.6434500000     0.0411550000    -2.1329100000 
 H        3.2737000000    -1.5591670000    -1.3795690000 
 H        5.4444170000    -0.9145200000    -0.0143300000 
 H        5.2034030000     1.6381260000    -0.8224060000 
 H        5.1382650000     1.5209140000     0.9388480000 
 H        2.8485440000     2.1576700000    -0.8671480000 
 H        2.7872810000     2.0302940000     0.8934370000 
 H        3.5074190000    -0.2043740000     1.7608750000 
*
