! RI PBE def2-SVP def2-SVP/J NBO PAL2
% maxcore 2000
% output
    # printlevel mini
    print[ P_Basis ] 0
    print[ P_SCFInfo ] 1
    print[ P_SCFIterInfo ] 1
    print[ P_OrbEn ] 0
    print[ P_Cartesian ] 0
end
*xyz 0 1
 C        1.4182960000    -0.1831950000    -0.3478560000 
 C        2.8195980000     0.0753370000     0.1195520000 
 C        3.6594960000    -1.0101620000     0.6621360000 
 N        3.9156670000    -0.4961740000    -0.6791500000 
 C        4.9938950000     0.5007610000    -0.7367640000 
 C        4.3464530000     1.8488020000    -0.4188210000 
 C        3.2004190000     1.4926160000     0.5324550000 
 H        1.3250220000    -1.1992850000    -0.7343470000 
 H        1.1414310000     0.5107790000    -1.1471470000 
 H        0.7039800000    -0.0576700000     0.4709740000 
 H        3.2836460000    -2.0287530000     0.7036180000 
 H        4.3714120000    -0.7566370000     1.4449840000 
 H        5.4427890000     0.4852990000    -1.7322690000 
 H        5.7843350000     0.2572510000    -0.0176350000 
 H        3.9384880000     2.2804640000    -1.3371850000 
 H        5.0499290000     2.5727890000    -0.0018870000 
 H        2.3542360000     2.1752290000     0.4329820000 
 H        3.5235090000     1.5289160000     1.5763810000 
*
