! RI PBE def2-SVP def2-SVP/J NBO PAL2
% maxcore 2000
% output
    # printlevel mini
    print[ P_Basis ] 0
    print[ P_SCFInfo ] 1
    print[ P_SCFIterInfo ] 1
    print[ P_OrbEn ] 0
    print[ P_Cartesian ] 0
end
*xyz 0 1
 C        1.1055450000    -0.1196720000    -0.0285620000 
 C        2.6004470000    -0.0381740000    -0.0061080000 
 C        3.5163780000    -0.6738270000    -1.0859850000 
 C        4.5886810000    -0.4339630000    -0.0014360000 
 C        3.4819780000    -0.7799780000     1.0202710000 
 C        4.5846960000     1.0892190000     0.0890450000 
 N        3.1214930000     1.3346570000     0.1354660000 
 H        0.7699630000    -1.1563740000    -0.1001230000 
 H        0.6958390000     0.4243120000    -0.8857360000 
 H        0.6870050000     0.3216470000     0.8792210000 
 H        3.6158830000    -0.1483600000    -2.0407370000 
 H        3.3155560000    -1.7341810000    -1.2485010000 
 H        5.5544810000    -0.9373710000    -0.0102230000 
 H        3.5459250000    -0.3519070000     2.0228330000 
 H        3.2655150000    -1.8480220000     1.0586180000 
 H        5.0628120000     1.5610760000    -0.7749240000 
 H        5.0743760000     1.4568300000     0.9956790000 
 H        2.8339170000     1.8885880000    -0.6635980000 
*
