! RI PBE def2-SVP def2-SVP/J NBO PAL2
% maxcore 2000
% output
    # printlevel mini
    print[ P_Basis ] 0
    print[ P_SCFInfo ] 1
    print[ P_SCFIterInfo ] 1
    print[ P_OrbEn ] 0
    print[ P_Cartesian ] 0
end
*xyz 0 1
 C        0.9891780000     0.1658210000    -0.4591380000 
 C        2.2450070000     0.0353790000     0.3458000000 
 C        2.7106060000    -1.2785460000     1.0419900000 
 C        4.0483240000    -0.5046120000     0.9457260000 
 N        3.5834570000     0.0719500000    -0.3709830000 
 C        3.7603490000     0.6837250000     1.8558400000 
 C        2.5482300000     1.0476520000     1.4532530000 
 H        0.9087390000    -0.6309490000    -1.2026730000 
 H        0.9705220000     1.1243380000    -0.9835600000 
 H        0.1096440000     0.1122850000     0.1873720000 
 H        2.6680390000    -2.1435330000     0.3718480000 
 H        2.3108070000    -1.5217920000     2.0294050000 
 H        5.0254120000    -0.9829000000     0.9840900000 
 H        3.5728480000    -0.6989020000    -1.0438360000 
 H        4.4102170000     1.1003430000     2.6111020000 
 H        1.9063110000     1.8540310000     1.7785450000 
*
