! RI PBE def2-SVP def2-SVP/J NBO PAL2
% maxcore 2000
% output
    # printlevel mini
    print[ P_Basis ] 0
    print[ P_SCFInfo ] 1
    print[ P_SCFIterInfo ] 1
    print[ P_OrbEn ] 0
    print[ P_Cartesian ] 0
end
*xyz 0 1
 C        1.1947090000     0.1599540000     0.5010010000 
 C        2.5824370000    -0.1419840000     0.0261860000 
 C        3.4636940000     0.9313540000    -0.4826980000 
 N        3.7090720000     0.3675150000     0.8492290000 
 N        4.7538460000    -0.5951900000     0.7781730000 
 C        4.3459120000    -1.6297080000     0.1670790000 
 C        2.9429400000    -1.5596740000    -0.3561990000 
 H        1.1410950000     1.1680850000     0.9141860000 
 H        0.8930740000    -0.5435980000     1.2817200000 
 H        0.4754150000     0.0874320000    -0.3193680000 
 H        3.1037240000     1.9546960000    -0.4857620000 
 H        4.1978130000     0.6907310000    -1.2447760000 
 H        5.0108570000    -2.4793210000     0.0437570000 
 H        2.2895210000    -2.2845460000     0.1442580000 
 H        2.8941030000    -1.7727360000    -1.4282960000 
*
