! RI PBE def2-SVP def2-SVP/J NBO PAL2
% maxcore 2000
% output
    # printlevel mini
    print[ P_Basis ] 0
    print[ P_SCFInfo ] 1
    print[ P_SCFIterInfo ] 1
    print[ P_OrbEn ] 0
    print[ P_Cartesian ] 0
end
*xyz 0 1
 C        1.4225020000    -0.1627190000    -0.3251370000 
 C        2.8206630000     0.0944050000     0.1561340000 
 C        3.6215670000    -1.0066360000     0.7814250000 
 C        4.0406280000    -0.4359630000    -0.5417060000 
 C        5.0824120000     0.6759680000    -0.5126670000 
 N        4.3817520000     1.9168910000    -0.1687520000 
 C        3.2029050000     1.5114600000     0.5987390000 
 H        1.3192180000    -1.1805530000    -0.7093980000 
 H        1.1456600000     0.5275210000    -1.1284200000 
 H        0.6949960000    -0.0414210000     0.4833860000 
 H        3.1906250000    -2.0020290000     0.7935350000 
 H        4.2333860000    -0.7720600000     1.6479060000 
 H        3.9470410000    -1.0548640000    -1.4270280000 
 H        5.5967210000     0.7859200000    -1.4694250000 
 H        5.8485350000     0.4698500000     0.2436690000 
 H        4.0627730000     2.3445640000    -1.0294220000 
 H        2.3858380000     2.2181370000     0.4356560000 
 H        3.4393690000     1.5313390000     1.6688260000 
*
