! RI PBE def2-SVP def2-SVP/J NBO PAL2
% maxcore 2000
% output
    # printlevel mini
    print[ P_Basis ] 0
    print[ P_SCFInfo ] 1
    print[ P_SCFIterInfo ] 1
    print[ P_OrbEn ] 0
    print[ P_Cartesian ] 0
end
*xyz 0 1
 C        1.0668740000     0.0301760000    -0.1149310000 
 C        2.5613820000     0.1417400000    -0.0479180000 
 C        3.5128600000    -0.4908510000    -1.0977750000 
 C        4.5475370000    -0.2523020000     0.0226760000 
 C        3.4232570000    -0.6050070000     1.0061290000 
 N        4.6098040000     1.2088530000     0.1697250000 
 C        3.1674810000     1.5429660000     0.0675260000 
 H        0.7473380000    -1.0135120000    -0.1703720000 
 H        0.6717010000     0.5483810000    -0.9941450000 
 H        0.6005270000     0.4757690000     0.7691130000 
 H        3.6570730000     0.0329110000    -2.0477650000 
 H        3.2919780000    -1.5461460000    -1.2690580000 
 H        5.5236980000    -0.7346020000     0.0468380000 
 H        3.4894550000    -0.1875860000     2.0130260000 
 H        3.2031790000    -1.6729680000     1.0338080000 
 H        5.1171880000     1.6120530000    -0.6089180000 
 H        2.9374210000     2.1625350000    -0.8056760000 
 H        2.8184480000     2.0693790000     0.9620160000 
*
