! RI PBE def2-SVP def2-SVP/J NBO PAL2
% maxcore 2000
% output
    # printlevel mini
    print[ P_Basis ] 0
    print[ P_SCFInfo ] 1
    print[ P_SCFIterInfo ] 1
    print[ P_OrbEn ] 0
    print[ P_Cartesian ] 0
end
*xyz 0 1
 C        1.1480690000     0.0265020000     0.1180260000 
 C        2.6538550000     0.0311830000     0.0077310000 
 C        3.2744520000    -0.9599930000    -1.0041590000 
 C        4.7789360000    -0.7415650000    -0.7940490000 
 C        4.7735780000     0.8109550000    -0.8013970000 
 C        3.2676240000     1.0169870000    -1.0135230000 
 N        2.9046390000     0.0222780000    -2.0559260000 
 H        0.8012220000    -0.8536940000     0.6668030000 
 H        0.6881260000     0.0202910000    -0.8705810000 
 H        0.7951360000     0.9093920000     0.6585350000 
 H        3.1243330000     0.0374850000     0.9953650000 
 H        2.9110530000    -1.9828970000    -1.1148780000 
 H        5.3705070000    -1.1704580000    -1.6065550000 
 H        5.1422790000    -1.1653700000     0.1451750000 
 H        5.3622220000     1.2362210000    -1.6179210000 
 H        5.1339130000     1.2461190000     0.1337830000 
 H        2.8971820000     2.0362650000    -1.1339180000 
 H        3.5401770000     0.0207080000    -2.8516300000 
*
