! RI PBE def2-SVP def2-SVP/J NBO PAL2
% maxcore 2000
% output
    # printlevel mini
    print[ P_Basis ] 0
    print[ P_SCFInfo ] 1
    print[ P_SCFIterInfo ] 1
    print[ P_OrbEn ] 0
    print[ P_Cartesian ] 0
end
*xyz 0 1
 C        0.7179530000     0.0321630000    -0.3218450000 
 C        2.1714460000    -0.0403400000     0.0502430000 
 C        3.1447240000    -0.9977100000    -0.5221650000 
 C        2.7994180000    -1.7501150000    -1.7874190000 
 C        2.4811850000    -0.6694570000    -2.8344460000 
 C        2.9534270000     0.6546200000    -2.2028670000 
 N        3.2700760000     0.4356880000    -0.7924220000 
 H        0.1249830000    -0.4765230000     0.4425200000 
 H        0.4840780000    -0.4319440000    -1.2788940000 
 H        0.3774690000     1.0713250000    -0.3570390000 
 H        2.3441010000     0.2360870000     1.0886860000 
 H        3.9005160000    -1.4323080000     0.1260080000 
 H        1.9667660000    -2.4449990000    -1.6467880000 
 H        3.6620630000    -2.3480420000    -2.0907970000 
 H        1.4149940000    -0.6411960000    -3.0638240000 
 H        2.9949150000    -0.8638960000    -3.7780670000 
 H        2.2120270000     1.4521770000    -2.3050240000 
 H        3.8696470000     1.0080610000    -2.6823540000 
*
