! RI PBE def2-SVP def2-SVP/J NBO PAL2
% maxcore 2000
% output
    # printlevel mini
    print[ P_Basis ] 0
    print[ P_SCFInfo ] 1
    print[ P_SCFIterInfo ] 1
    print[ P_OrbEn ] 0
    print[ P_Cartesian ] 0
end
*xyz 0 1
 C        1.0214180000     0.0022650000    -0.4707260000 
 C        2.3088970000    -0.2565500000     0.2500810000 
 C        3.4468060000    -1.0451660000    -0.3033970000 
 C        3.4778850000    -1.2685170000    -1.7639270000 
 C        3.5622700000    -0.1064330000    -2.4037900000 
 C        3.6240880000     1.0246030000    -1.4184330000 
 N        3.5654510000     0.4092240000    -0.0854960000 
 H        0.2594910000    -0.7025060000    -0.1290380000 
 H        1.1157280000    -0.0994850000    -1.5523640000 
 H        0.6582800000     1.0107740000    -0.2499520000 
 H        2.1887350000    -0.3215630000     1.3298220000 
 H        4.0148780000    -1.7000410000     0.3517460000 
 H        3.4300070000    -2.2477690000    -2.2231510000 
 H        3.5623820000     0.0308040000    -3.4787950000 
 H        2.8022510000     1.7400780000    -1.5499330000 
 H        4.5535430000     1.5980600000    -1.5087580000 
*
