! RI PBE def2-SVP def2-SVP/J NBO PAL2
% maxcore 2000
% output
    # printlevel mini
    print[ P_Basis ] 0
    print[ P_SCFInfo ] 1
    print[ P_SCFIterInfo ] 1
    print[ P_OrbEn ] 0
    print[ P_Cartesian ] 0
end
*xyz 0 1
 C        1.0844140000     0.0762180000     0.0836630000 
 C        2.5821780000     0.1224410000    -0.0851820000 
 C        3.2073120000     1.1960180000    -1.0059990000 
 C        2.8784410000     0.1865760000    -2.1163130000 
 N        3.1340340000    -0.8743930000    -1.0817090000 
 C        4.5811840000    -0.6533770000    -0.8656760000 
 C        4.6904610000     0.9014590000    -0.7999830000 
 H        0.7633390000     0.8596070000     0.7750510000 
 H        0.7871540000    -0.8874280000     0.5032700000 
 H        0.5405700000     0.2147830000    -0.8516110000 
 H        3.0560700000     0.0212730000     0.8984330000 
 H        2.8856650000     2.2387910000    -1.0185870000 
 H        3.5332650000     0.1400150000    -2.9904930000 
 H        1.8387230000     0.1743260000    -2.4360850000 
 H        5.1473660000    -1.0876220000    -1.6912500000 
 H        4.8930380000    -1.1426940000     0.0585780000 
 H        5.3186220000     1.3211320000    -1.5888550000 
 H        5.0613730000     1.2625750000     0.1620460000 
*
