! RI PBE def2-SVP def2-SVP/J NBO PAL2
% maxcore 2000
% output
    # printlevel mini
    print[ P_Basis ] 0
    print[ P_SCFInfo ] 1
    print[ P_SCFIterInfo ] 1
    print[ P_OrbEn ] 0
    print[ P_Cartesian ] 0
end
*xyz 0 1
 C        1.0143970000    -0.0495190000    -0.1998770000 
 C        2.4575160000     0.2862540000     0.0565230000 
 C        3.6382580000    -0.5254030000    -0.5677210000 
 N        4.4569750000     0.6894460000    -0.2800500000 
 C        3.2226090000     1.3923070000    -0.7396400000 
 C        3.0601920000     0.9001050000    -2.1818950000 
 C        3.3412120000    -0.3963800000    -2.0656640000 
 H        0.7356310000    -0.9671460000     0.3254380000 
 H        0.8091620000    -0.1893200000    -1.2628910000 
 H        0.3640590000     0.7471490000     0.1717200000 
 H        2.6483030000     0.4232790000     1.1237160000 
 H        3.9750910000    -1.4820680000    -0.1691990000 
 H        5.2123390000     0.7925660000    -0.9560020000 
 H        3.1216950000     2.4553330000    -0.5222010000 
 H        2.7520360000     1.4735950000    -3.0445270000 
 H        3.3279340000    -1.1832790000    -2.8063380000 
*
