! RI PBE def2-SVP def2-SVP/J NBO PAL2
% maxcore 2000
% output
    # printlevel mini
    print[ P_Basis ] 0
    print[ P_SCFInfo ] 1
    print[ P_SCFIterInfo ] 1
    print[ P_OrbEn ] 0
    print[ P_Cartesian ] 0
end
*xyz 0 1
 C        0.8894210000     0.1384510000    -0.4636930000 
 C        2.2135180000     0.0651880000     0.2342990000 
 C        3.4381560000     0.8004180000    -0.2356410000 
 N        3.5173320000     1.1268580000    -1.6252650000 
 C        3.3986090000    -0.0351320000    -2.3377100000 
 N        3.3963240000    -1.1193600000    -1.6611530000 
 C        3.3912130000    -0.7263260000    -0.2814660000 
 H        0.3635640000     1.0625860000    -0.2076790000 
 H        0.2540640000    -0.7024270000    -0.1754470000 
 H        0.9971840000     0.1023170000    -1.5488170000 
 H        2.1504330000     0.0325330000     1.3177670000 
 H        4.0451970000     1.3885410000     0.4420170000 
 H        3.2491640000     2.0216850000    -1.9955060000 
 H        3.3476150000    -0.0016160000    -3.4214300000 
 H        3.9351960000    -1.3629150000     0.4050150000 
*
