! RI PBE def2-SVP def2-SVP/J NBO PAL2
% maxcore 2000
% output
    # printlevel mini
    print[ P_Basis ] 0
    print[ P_SCFInfo ] 1
    print[ P_SCFIterInfo ] 1
    print[ P_OrbEn ] 0
    print[ P_Cartesian ] 0
end
*xyz 0 1
 C        0.8576040000     0.2111820000    -0.1892320000 
 C        2.3499540000     0.2044370000    -0.0140980000 
 C        3.1882950000    -0.8578100000    -0.6610460000 
 C        3.2439400000     0.5579160000    -1.1608130000 
 C        4.4806450000     1.3791620000    -1.0136880000 
 C        4.4450660000     2.6981210000    -0.3518960000 
 N        5.1376780000     1.5721460000     0.2715400000 
 H        0.3701710000    -0.4492600000     0.5331440000 
 H        0.5835770000    -0.1332220000    -1.1898830000 
 H        0.4436830000     1.2149130000    -0.0587250000 
 H        2.6816570000     0.5186980000     0.9728480000 
 H        2.6863430000    -1.6005950000    -1.2702410000 
 H        4.0493420000    -1.2282880000    -0.1167150000 
 H        2.7262900000     0.7383940000    -2.0996920000 
 H        5.1908410000     1.2473080000    -1.8272190000 
 H        3.4929340000     3.0116330000     0.0658710000 
 H        5.0873240000     3.5039720000    -0.6906130000 
 H        4.5724560000     1.1907950000     1.0232470000 
*
