! RI PBE def2-SVP def2-SVP/J NBO PAL2
% maxcore 2000
% output
    # printlevel mini
    print[ P_Basis ] 0
    print[ P_SCFInfo ] 1
    print[ P_SCFIterInfo ] 1
    print[ P_OrbEn ] 0
    print[ P_Cartesian ] 0
end
*xyz 0 1
 C        1.2500210000    -0.1600540000     0.3242300000 
 C        2.6864430000    -0.0278490000    -0.0893700000 
 C        3.1833810000    -0.6791620000    -1.3360160000 
 C        3.0603370000     0.8142930000    -1.2921420000 
 C        4.2612010000     1.6665150000    -1.2576120000 
 N        5.4303810000     1.1850720000    -1.1617420000 
 N        6.4898850000     2.0443820000    -1.1547700000 
 H        1.0842840000    -1.0862020000     0.8821980000 
 H        0.5944650000    -0.1807090000    -0.5505870000 
 H        0.9350540000     0.6732120000     0.9584800000 
 H        3.4063350000     0.0238430000     0.7219210000 
 H        2.4659700000    -1.2190040000    -1.9433980000 
 H        4.1910170000    -1.0740110000    -1.3436190000 
 H        2.2195730000     1.2515830000    -1.8217600000 
 H        4.1007550000     2.7526810000    -1.2960660000 
 H        7.2729040000     1.6266110000    -0.6772640000 
 H        6.2835860000     2.9715890000    -0.7930920000 
*
