! RI PBE def2-SVP def2-SVP/J NBO PAL2
% maxcore 2000
% output
    # printlevel mini
    print[ P_Basis ] 0
    print[ P_SCFInfo ] 1
    print[ P_SCFIterInfo ] 1
    print[ P_OrbEn ] 0
    print[ P_Cartesian ] 0
end
*xyz 0 1
 C        0.8432360000     0.1163240000    -0.3526260000 
 C        2.3104530000     0.0872210000    -0.0361810000 
 C        3.2142000000    -0.9381450000    -0.6692820000 
 C        3.3309290000     0.4940120000    -1.0693780000 
 N        4.4828330000     1.3074650000    -0.8088980000 
 C        4.1179100000     2.7002590000    -0.6966700000 
 C        5.3450900000     0.8885850000     0.2661250000 
 H        0.2901360000    -0.6295490000     0.2261240000 
 H        0.6721570000    -0.0988660000    -1.4113800000 
 H        0.4061910000     1.0961070000    -0.1402290000 
 H        2.5656940000     0.3312550000     0.9911740000 
 H        2.7856350000    -1.6241550000    -1.3911900000 
 H        3.9831310000    -1.3777010000    -0.0476090000 
 H        2.9040740000     0.7295480000    -2.0423840000 
 H        3.5285840000     2.9983880000    -1.5672640000 
 H        5.0186810000     3.3185580000    -0.6700220000 
 H        3.5222420000     2.9223490000     0.2065950000 
 H        5.7268140000    -0.1163080000     0.0828300000 
 H        4.8667040000     0.9047150000     1.2623560000 
 H        6.2032160000     1.5632560000     0.3089170000 
*
