! RI PBE def2-SVP def2-SVP/J NBO PAL2
% maxcore 2000
% output
    # printlevel mini
    print[ P_Basis ] 0
    print[ P_SCFInfo ] 1
    print[ P_SCFIterInfo ] 1
    print[ P_OrbEn ] 0
    print[ P_Cartesian ] 0
end
*xyz 0 1
 C        1.0100630000     0.3407400000    -0.2375680000 
 C        2.5088220000     0.2859910000    -0.1508830000 
 C        3.2983810000    -0.6507350000    -1.0254990000 
 C        3.4065130000     0.8400900000    -1.2137950000 
 N        2.8331670000     1.5061610000    -2.3538510000 
 C        4.6830030000     1.5042300000    -0.7626410000 
 N        4.4114570000     2.8717040000    -0.3556460000 
 H        0.5607790000    -0.3994910000     0.4296590000 
 H        0.6469260000     0.1164150000    -1.2440120000 
 H        0.6285060000     1.3239300000     0.0522660000 
 H        2.8926590000     0.4251760000     0.8551500000 
 H        2.7431640000    -1.2020280000    -1.7771750000 
 H        4.1394310000    -1.1878430000    -0.6015330000 
 H        1.8246600000     1.4628210000    -2.3598470000 
 H        3.1721380000     1.1167240000    -3.2240670000 
 H        5.4178120000     1.4232000000    -1.5827840000 
 H        5.0949970000     0.9499720000     0.0868200000 
 H        3.9148330000     3.3276530000    -1.1142160000 
 H        5.2734800000     3.3810190000    -0.2077790000 
*
