! RI PBE def2-SVP def2-SVP/J NBO PAL2
% maxcore 2000
% output
    # printlevel mini
    print[ P_Basis ] 0
    print[ P_SCFInfo ] 1
    print[ P_SCFIterInfo ] 1
    print[ P_OrbEn ] 0
    print[ P_Cartesian ] 0
end
*xyz 0 1
 C        0.9501580000     0.1324410000    -0.1876840000 
 C        2.4497120000     0.0862070000    -0.1423920000 
 C        3.2149380000    -0.7524080000    -1.1186660000 
 C        3.2625000000     0.7401770000    -1.2241260000 
 N        4.4773300000     1.3907740000    -0.8808690000 
 C        4.5000400000     2.6535520000    -0.3521730000 
 N        3.5292860000     3.3613180000     0.0574560000 
 H        0.5139100000    -0.7158260000     0.3460450000 
 H        0.5874270000     0.0948840000    -1.2182640000 
 H        0.5645860000     1.0479800000     0.2692490000 
 H        2.8929960000     0.1596990000     0.8452050000 
 H        2.6582230000    -1.2896440000    -1.8771580000 
 H        4.1095540000    -1.2529540000    -0.7688810000 
 H        2.6960080000     1.1925760000    -2.0380800000 
 H        5.3155010000     1.0773280000    -1.3409990000 
 H        5.5122440000     3.0560630000    -0.2698210000 
 H        2.6411660000     2.8779230000    -0.0737430000 
*
