! RI PBE def2-SVP def2-SVP/J NBO PAL2
% maxcore 2000
% output
    # printlevel mini
    print[ P_Basis ] 0
    print[ P_SCFInfo ] 1
    print[ P_SCFIterInfo ] 1
    print[ P_OrbEn ] 0
    print[ P_Cartesian ] 0
end
*xyz 0 1
 C        0.7926470000    -0.1468660000    -0.1021060000 
 C        2.2840030000    -0.2084500000     0.0530230000 
 C        3.1351510000    -0.8819440000    -0.9806350000 
 C        3.1647360000     0.6093090000    -0.8349250000 
 N        4.3447240000     1.1774330000    -0.2764010000 
 N        4.1767410000     2.3173950000     0.4208780000 
 C        5.1647090000     3.1007800000     0.5657030000 
 H        0.3186360000    -1.0608830000     0.2655450000 
 H        0.5116290000    -0.0298960000    -1.1521300000 
 H        0.3744330000     0.6975040000     0.4518270000 
 H        2.6471760000    -0.2903790000     1.0716140000 
 H        2.6498670000    -1.2917120000    -1.8584980000 
 H        4.0087180000    -1.4260540000    -0.6434270000 
 H        2.6627760000     1.1914690000    -1.6078730000 
 H        5.1568820000     1.1583430000    -0.8886060000 
 H        5.0261000000     3.9877840000     1.1716860000 
 H        6.1473810000     2.9149670000     0.1185350000 
*
