! RI PBE def2-SVP def2-SVP/J NBO PAL2
% maxcore 2000
% output
    # printlevel mini
    print[ P_Basis ] 0
    print[ P_SCFInfo ] 1
    print[ P_SCFIterInfo ] 1
    print[ P_OrbEn ] 0
    print[ P_Cartesian ] 0
end
*xyz 0 1
 C        1.1084210000    -0.0564100000    -0.0243170000 
 C        2.5661470000    -0.3129080000    -0.0187350000 
 C        3.3055630000    -1.3436650000    -0.4318140000 
 C        4.7317510000    -0.8572960000    -0.1477940000 
 C        4.6602280000     0.5879060000    -0.7098850000 
 C        3.6536660000     0.6628180000     0.4698440000 
 N        4.6183130000    -0.2137100000     1.1959900000 
 H        0.5535560000    -0.9071130000    -0.4234160000 
 H        0.8668250000     0.8226510000    -0.6317350000 
 H        0.7375260000     0.1520730000     0.9850670000 
 H        3.0074390000    -2.2759310000    -0.8913860000 
 H        5.5721560000    -1.5259110000    -0.3301320000 
 H        4.2730770000     0.7204630000    -1.7190230000 
 H        5.5685200000     1.1645050000    -0.5300960000 
 H        3.3500010000     1.5997490000     0.9381750000 
 H        4.1432100000    -0.8223200000     1.8611170000 
*
