! RI PBE def2-SVP def2-SVP/J NBO PAL2
% maxcore 2000
% output
    # printlevel mini
    print[ P_Basis ] 0
    print[ P_SCFInfo ] 1
    print[ P_SCFIterInfo ] 1
    print[ P_OrbEn ] 0
    print[ P_Cartesian ] 0
end
*xyz 0 1
 C        0.9613380000     0.0545470000     0.3902590000 
 C        2.4231040000    -0.0358280000    -0.0287070000 
 C        2.7917440000    -1.4412180000    -0.5300960000 
 C        2.5259510000    -1.3877940000    -2.0257320000 
 C        3.5813750000    -0.7751260000    -2.9072590000 
 C        2.4601170000     0.0649020000    -2.3826980000 
 N        2.7468770000     0.8155280000    -1.1798330000 
 H        0.7564120000    -0.5785120000     1.2582270000 
 H        0.3068400000    -0.2643600000    -0.4264620000 
 H        0.6954160000     1.0812480000     0.6583200000 
 H        3.0559880000     0.2516500000     0.8175760000 
 H        2.1879290000    -2.2068320000    -0.0392360000 
 H        3.8412940000    -1.6654490000    -0.3212120000 
 H        1.8428850000    -2.1032580000    -2.4654180000 
 H        3.5737900000    -1.0493130000    -3.9560860000 
 H        4.5607640000    -0.5963600000    -2.4778690000 
 H        1.7136280000     0.4539550000    -3.0668980000 
 H        2.2489370000     1.6940200000    -1.1566750000 
*
