! RI PBE def2-SVP def2-SVP/J NBO PAL2
% maxcore 2000
% output
    # printlevel mini
    print[ P_Basis ] 0
    print[ P_SCFInfo ] 1
    print[ P_SCFIterInfo ] 1
    print[ P_OrbEn ] 0
    print[ P_Cartesian ] 0
end
*xyz 0 1
 C        0.9036600000     0.1105100000    -0.1597090000 
 C        2.4097220000    -0.1075810000    -0.0835400000 
 C        2.8577720000    -1.5525080000    -0.3860840000 
 C        3.5197940000    -1.4955760000    -1.7421650000 
 C        2.7764130000    -0.8712560000    -2.8534930000 
 N        3.7846520000    -0.1094580000    -2.1276780000 
 C        3.2355670000     0.7453690000    -1.0754940000 
 H        0.3859020000    -0.4888410000     0.5940640000 
 H        0.4885840000    -0.1596780000    -1.1330730000 
 H        0.6536190000     1.1588630000     0.0243230000 
 H        2.7146190000     0.1525940000     0.9339400000 
 H        2.0195250000    -2.2545000000    -0.3580730000 
 H        3.5863320000    -1.8942400000     0.3539240000 
 H        4.3024160000    -2.2147430000    -1.9632210000 
 H        1.7301180000    -0.6308910000    -2.6984210000 
 H        3.0386180000    -1.1058340000    -3.8798450000 
 H        4.0844050000     1.2074350000    -0.5643450000 
 H        2.6454950000     1.5526270000    -1.5196900000 
*
