! RI PBE def2-SVP def2-SVP/J NBO PAL2
% maxcore 2000
% output
    # printlevel mini
    print[ P_Basis ] 0
    print[ P_SCFInfo ] 1
    print[ P_SCFIterInfo ] 1
    print[ P_OrbEn ] 0
    print[ P_Cartesian ] 0
end
*xyz 0 1
 C        1.4584890000     0.0537810000     1.0093790000 
 C        2.2624010000    -0.1057450000    -0.0315160000 
 C        2.7885590000    -1.4057560000    -0.5783850000 
 C        4.0941220000    -1.0004640000    -1.2223890000 
 C        4.9910700000    -0.1429550000    -0.4247320000 
 N        4.1237070000     0.4531790000    -1.4335800000 
 C        2.8834120000     0.9872440000    -0.8665030000 
 H        1.0666780000    -0.7936980000     1.5614780000 
 H        1.1527340000     1.0403540000     1.3412300000 
 H        2.1080820000    -1.7985350000    -1.3433790000 
 H        2.8984440000    -2.1731490000     0.1907110000 
 H        4.4967590000    -1.6104090000    -2.0238140000 
 H        6.0499040000    -0.1017750000    -0.6538700000 
 H        4.7382290000     0.0082270000     0.6225320000 
 H        2.2241060000     1.2490620000    -1.7020990000 
 H        3.0763930000     1.9004300000    -0.2986630000 
*
