! RI PBE def2-SVP def2-SVP/J NBO PAL2
% maxcore 2000
% output
    # printlevel mini
    print[ P_Basis ] 0
    print[ P_SCFInfo ] 1
    print[ P_SCFIterInfo ] 1
    print[ P_OrbEn ] 0
    print[ P_Cartesian ] 0
end
*xyz 0 1
 C        1.0464940000    -0.1291610000    -0.3265510000 
 C        2.4740180000     0.0228540000     0.0547800000 
 C        3.1930210000     1.1401120000     0.1485990000 
 C        4.5993680000     0.8267880000     0.4895250000 
 C        5.3172450000    -0.0038970000    -0.5061190000 
 N        4.6916220000    -0.6329040000     0.6452410000 
 C        3.3467430000    -1.1597540000     0.3942600000 
 H        0.5672050000     0.8381130000    -0.4835280000 
 H        0.4889640000    -0.6677610000     0.4472400000 
 H        0.9442040000    -0.7123060000    -1.2478630000 
 H        2.8250560000     2.1451600000    -0.0186340000 
 H        5.1490550000     1.4439630000     1.1938140000 
 H        6.4017270000    -0.0498330000    -0.5074440000 
 H        4.8414360000    -0.1114000000    -1.4779600000 
 H        2.9838020000    -1.6752060000     1.2926920000 
 H        3.3724210000    -1.9074570000    -0.4076530000 
*
