! RI PBE def2-SVP def2-SVP/J NBO PAL2
% maxcore 2000
% output
    # printlevel mini
    print[ P_Basis ] 0
    print[ P_SCFInfo ] 1
    print[ P_SCFIterInfo ] 1
    print[ P_OrbEn ] 0
    print[ P_Cartesian ] 0
end
*xyz 0 1
 C        0.9267970000    -0.0334560000    -0.0348990000 
 C        2.4355550000     0.0033190000    -0.0155360000 
 C        3.1550700000     1.1073180000     0.7863100000 
 C        4.2155120000     0.0690260000     1.1959170000 
 C        3.2146040000    -1.0394580000     0.8176890000 
 C        3.7380530000    -2.2848820000     0.1453630000 
 N        2.6441450000    -3.1375520000    -0.2991730000 
 H        0.5144940000     0.8328970000    -0.5610080000 
 H        0.5250750000    -0.0234360000     0.9834160000 
 H        0.5674630000    -0.9370990000    -0.5326190000 
 H        2.8224300000    -0.0164470000    -1.0411720000 
 H        2.5531980000     1.4225970000     1.6435700000 
 H        3.4882930000     1.9980090000     0.2504480000 
 H        4.5921740000     0.0947660000     2.2198050000 
 H        5.0687320000     0.0752280000     0.5114550000 
 H        2.6181130000    -1.3164370000     1.6976060000 
 H        4.4465500000    -2.7870020000     0.8259930000 
 H        4.3135170000    -1.9884320000    -0.7390910000 
 H        2.1209560000    -3.4805510000     0.4979670000 
 H        2.9972680000    -3.9497970000    -0.7892220000 
*
