! RI PBE def2-SVP def2-SVP/J NBO PAL2
% maxcore 2000
% output
    # printlevel mini
    print[ P_Basis ] 0
    print[ P_SCFInfo ] 1
    print[ P_SCFIterInfo ] 1
    print[ P_OrbEn ] 0
    print[ P_Cartesian ] 0
end
*xyz 0 1
 C        0.6148220000     0.2309540000     0.0999050000 
 C        2.1066580000     0.1163150000    -0.0856860000 
 C        2.8629420000     0.1617950000     1.2187740000 
 C        2.6107750000    -0.7930640000    -1.1743040000 
 C        2.7307560000     0.6958450000    -1.3407100000 
 C        4.0993020000     1.3315100000    -1.2965250000 
 N        1.8154580000     1.2732560000    -2.2922270000 
 H        0.2446610000    -0.6054210000     0.7010270000 
 H        0.0950140000     0.2346100000    -0.8565730000 
 H        0.3571580000     1.1543640000     0.6296550000 
 H        2.4725760000    -0.5994380000     1.9010720000 
 H        2.7455960000     1.1326540000     1.7110230000 
 H        3.9300660000    -0.0269840000     1.0992980000 
 H        1.8727700000    -1.2959110000    -1.7880300000 
 H        3.5190820000    -1.3565480000    -0.9910260000 
 H        4.5509500000     1.3082700000    -2.2936150000 
 H        4.7849950000     0.8259600000    -0.6161200000 
 H        4.0336360000     2.3804090000    -0.9881480000 
 H        1.7042370000     2.2666660000    -2.1215930000 
 H        2.1815680000     1.1731670000    -3.2322870000 
*
