! RI PBE def2-SVP def2-SVP/J NBO PAL2
% maxcore 2000
% output
    # printlevel mini
    print[ P_Basis ] 0
    print[ P_SCFInfo ] 1
    print[ P_SCFIterInfo ] 1
    print[ P_OrbEn ] 0
    print[ P_Cartesian ] 0
end
*xyz 0 1
 C        1.0376870000     0.2456410000    -0.0413390000 
 C        2.5365480000     0.1409560000    -0.0363550000 
 C        3.2952120000    -0.7650930000    -0.9704690000 
 C        2.6174780000    -1.6388830000    -1.9884290000 
 C        3.3662970000     0.7249720000    -1.1386940000 
 C        4.6290780000     1.4751080000    -0.8324140000 
 N        4.3401810000     2.8322640000    -0.3834690000 
 H        0.5774250000    -0.5547920000     0.5454690000 
 H        0.6272090000     0.1916070000    -1.0515470000 
 H        0.7203470000     1.1989430000     0.3895910000 
 H        2.9790660000     0.2440150000     0.9507160000 
 H        4.1850970000    -1.2134790000    -0.5351670000 
 H        1.7513900000    -1.1476700000    -2.4356770000 
 H        2.2719140000    -2.5763400000    -1.5430070000 
 H        3.3035930000    -1.8919730000    -2.8016060000 
 H        2.8016820000     1.1167100000    -1.9841460000 
 H        5.2923870000     1.4353990000    -1.7121870000 
 H        5.1552050000     0.9590010000    -0.0220770000 
 H        3.8430940000     3.3391310000    -1.1065960000 
 H        5.1998300000     3.3397740000    -0.2127070000 
*
