! RI PBE def2-SVP def2-SVP/J NBO PAL2
% maxcore 2000
% output
    # printlevel mini
    print[ P_Basis ] 0
    print[ P_SCFInfo ] 1
    print[ P_SCFIterInfo ] 1
    print[ P_OrbEn ] 0
    print[ P_Cartesian ] 0
end
*xyz 0 1
 C        0.5238050000     0.0223180000    -0.8559100000 
 C        1.8859140000     0.4457420000    -0.3832310000 
 C        3.1499050000    -0.2989250000    -0.7398280000 
 C        3.1605300000    -1.5310580000    -1.5999650000 
 C        2.9128080000     1.0874790000    -1.2793450000 
 C        2.6283520000     1.3056420000    -2.7440460000 
 N        3.6977620000     2.1105300000    -0.6331400000 
 H        0.0961220000    -0.7242110000    -0.1807620000 
 H        0.5364380000    -0.4156540000    -1.8547210000 
 H       -0.1640330000     0.8723950000    -0.8819700000 
 H        1.8929360000     0.8591620000     0.6205150000 
 H        3.8855300000    -0.3148490000     0.0583320000 
 H        2.3980280000    -1.5130640000    -2.3796210000 
 H        2.9837300000    -2.4249850000    -0.9952430000 
 H        4.1283470000    -1.6562010000    -2.0940300000 
 H        2.0330830000     0.5100600000    -3.1933260000 
 H        3.5644210000     1.3740420000    -3.3079880000 
 H        2.0855480000     2.2451470000    -2.8910790000 
 H        4.5991760000     2.2061900000    -1.0885940000 
 H        3.2341950000     3.0101490000    -0.7033470000 
*
