! RI PBE def2-SVP def2-SVP/J NBO PAL2
% maxcore 2000
% output
    # printlevel mini
    print[ P_Basis ] 0
    print[ P_SCFInfo ] 1
    print[ P_SCFIterInfo ] 1
    print[ P_OrbEn ] 0
    print[ P_Cartesian ] 0
end
*xyz 0 1
 C        0.9158200000     0.1502710000     0.0446660000 
 C        2.4134170000     0.0516720000     0.0107540000 
 C        3.1648200000    -0.7253010000    -1.0210820000 
 C        2.4995390000    -1.4872010000    -2.1304130000 
 C        3.1941130000     0.7889870000    -1.0579840000 
 C        4.3909690000     1.4901980000    -0.7142780000 
 N        5.3585330000     2.0454730000    -0.4275800000 
 H        0.4830490000    -0.7068050000     0.5671460000 
 H        0.4817420000     0.1832570000    -0.9558920000 
 H        0.6021750000     1.0548130000     0.5707390000 
 H        2.8852250000     0.0705800000     0.9877100000 
 H        4.0863090000    -1.1715660000    -0.6617790000 
 H        1.6072460000    -0.9805440000    -2.5015460000 
 H        2.2004630000    -2.4824480000    -1.7914490000 
 H        3.1825980000    -1.6132250000    -2.9735380000 
 H        2.6091630000     1.2619400000    -1.8400740000 
*
