! RI PBE def2-SVP def2-SVP/J NBO PAL2
% maxcore 2000
% output
    # printlevel mini
    print[ P_Basis ] 0
    print[ P_SCFInfo ] 1
    print[ P_SCFIterInfo ] 1
    print[ P_OrbEn ] 0
    print[ P_Cartesian ] 0
end
*xyz 0 1
 C        0.9246870000    -0.0867390000     0.0084140000 
 C        2.4294750000    -0.0872230000     0.1319700000 
 C        3.1356610000     0.9451300000     1.0293220000 
 C        4.1834710000    -0.1290360000     1.3720570000 
 C        3.1845770000    -1.2134700000     0.9153620000 
 C        2.3871860000    -1.7722760000     2.0773810000 
 N        3.7727190000    -2.3186520000     0.1920430000 
 H        0.5751040000     0.8074040000    -0.5157300000 
 H        0.4409240000    -0.1029830000     0.9882940000 
 H        0.5680400000    -0.9546580000    -0.5549480000 
 H        2.8785670000    -0.0423570000    -0.8679980000 
 H        2.5233480000     1.2093880000     1.8952090000 
 H        3.4866150000     1.8663160000     0.5622590000 
 H        4.5528680000    -0.1909400000     2.3976220000 
 H        5.0399590000    -0.0845770000     0.6943840000 
 H        1.9679300000    -0.9786870000     2.6988190000 
 H        3.0357490000    -2.3926190000     2.6995040000 
 H        1.5568370000    -2.3927700000     1.7256570000 
 H        4.2352660000    -1.9929100000    -0.6484110000 
 H        3.0652270000    -2.9873500000    -0.0905900000 
*
