! RI PBE def2-SVP def2-SVP/J NBO PAL2
% maxcore 2000
% output
    # printlevel mini
    print[ P_Basis ] 0
    print[ P_SCFInfo ] 1
    print[ P_SCFIterInfo ] 1
    print[ P_OrbEn ] 0
    print[ P_Cartesian ] 0
end
*xyz 0 1
 C        0.9681410000    -0.0415920000     0.0877180000 
 C        2.4731200000    -0.0000370000     0.1560340000 
 C        3.1796790000     1.0612170000     1.0229980000 
 C        4.2279930000     0.0048750000     1.4111390000 
 C        3.2094350000    -1.0821100000     0.9943050000 
 C        3.6862710000    -2.2715410000     0.3239430000 
 N        4.0731010000    -3.2015150000    -0.2331550000 
 H        0.5772500000     0.8353640000    -0.4350270000 
 H        0.5300040000    -0.0552450000     1.0898850000 
 H        0.6196350000    -0.9295020000    -0.4462370000 
 H        2.9033940000     0.0068030000    -0.8496360000 
 H        2.5594560000     1.3441060000     1.8778040000 
 H        3.5295820000     1.9671850000     0.5281750000 
 H        4.5840160000    -0.0238290000     2.4403560000 
 H        5.0844840000     0.0130410000     0.7360940000 
 H        2.5911590000    -1.3780300000     1.8471040000 
*
