! RI PBE def2-SVP def2-SVP/J NBO PAL2
% maxcore 2000
% output
    # printlevel mini
    print[ P_Basis ] 0
    print[ P_SCFInfo ] 1
    print[ P_SCFIterInfo ] 1
    print[ P_OrbEn ] 0
    print[ P_Cartesian ] 0
end
*xyz 0 1
 C        1.4209870000     0.5363370000     0.4769510000 
 C        2.5894970000    -0.0846570000    -0.2552580000 
 C        2.4049080000    -1.5627190000    -0.6308440000 
 C        3.2988200000    -1.7385350000    -1.8591250000 
 C        3.3141420000    -0.3616210000    -2.4829000000 
 C        2.0212120000     0.3395700000    -2.6069770000 
 N        2.9159720000     0.6398640000    -1.4943440000 
 H        1.2315960000     0.0113470000     1.4163030000 
 H        0.5101790000     0.4850630000    -0.1262600000 
 H        1.6193150000     1.5854210000     0.7042690000 
 H        3.4852030000     0.0069380000     0.3704860000 
 H        1.3586880000    -1.7683050000    -0.8738290000 
 H        2.6746670000    -2.2304660000     0.1891350000 
 H        2.9417170000    -2.5138300000    -2.5415210000 
 H        4.3165100000    -2.0090350000    -1.5617140000 
 H        4.1366890000    -0.0951600000    -3.1388910000 
 H        1.1128020000    -0.2252470000    -2.4182530000 
 H        1.9084960000     1.1448350000    -3.3243380000 
*
