! RI PBE def2-SVP def2-SVP/J NBO PAL2
% maxcore 2000
% output
    # printlevel mini
    print[ P_Basis ] 0
    print[ P_SCFInfo ] 1
    print[ P_SCFIterInfo ] 1
    print[ P_OrbEn ] 0
    print[ P_Cartesian ] 0
end
*xyz 0 1
 C        1.2832290000     0.3180840000     0.6532070000 
 C        2.4868470000    -0.1748900000    -0.1308490000 
 C        2.4075680000    -1.6577390000    -0.5282410000 
 C        3.2784170000    -1.7968440000    -1.7820220000 
 C        3.2008410000    -0.4413040000    -2.4444530000 
 N        1.8867420000     0.1751210000    -2.5862020000 
 C        2.7221140000     0.5382180000    -1.4467140000 
 H        1.1461840000    -0.2583720000     1.5719020000 
 H        0.3675090000     0.2236520000     0.0617710000 
 H        1.3908730000     1.3692080000     0.9318640000 
 H        3.3889050000    -0.0217500000     0.4762410000 
 H        1.3691210000    -1.9266840000    -0.7475230000 
 H        2.7256380000    -2.3183990000     0.2802830000 
 H        2.9546900000    -2.6136050000    -2.4341120000 
 H        4.3203990000    -1.9963560000    -1.5103020000 
 H        3.9140740000    -0.1854110000    -3.2209680000 
 H        1.1470010000    -0.4649460000    -2.3143070000 
 H        3.0554490000     1.5714170000    -1.4326740000 
*
