! RI PBE def2-SVP def2-SVP/J NBO PAL2
% maxcore 2000
% output
    # printlevel mini
    print[ P_Basis ] 0
    print[ P_SCFInfo ] 1
    print[ P_SCFIterInfo ] 1
    print[ P_OrbEn ] 0
    print[ P_Cartesian ] 0
end
*xyz 0 1
 C        1.1103280000    -0.0401540000    -0.0521330000 
 C        2.4323660000     0.1266760000    -0.0526760000 
 C        3.1642050000     1.3800450000     0.1428930000 
 C        4.4768160000     1.1950280000    -0.0490140000 
 C        4.7739980000    -0.2377720000    -0.3182890000 
 N        4.4451850000    -1.1736130000     0.7588170000 
 C        3.4579450000    -0.9302150000    -0.2935790000 
 H        0.4387710000     0.7910680000     0.1303130000 
 H        0.6629280000    -1.0101220000    -0.2354530000 
 H        2.6880920000     2.3090600000     0.4312080000 
 H        5.2410570000     1.9587650000     0.0218870000 
 H        5.5968080000    -0.5321530000    -0.9590770000 
 H        4.1993790000    -0.6542270000     1.5971510000 
 H        3.2193130000    -1.7880740000    -0.9108290000 
*
