! RI PBE def2-SVP def2-SVP/J NBO PAL2
% maxcore 2000
% output
    # printlevel mini
    print[ P_Basis ] 0
    print[ P_SCFInfo ] 1
    print[ P_SCFIterInfo ] 1
    print[ P_OrbEn ] 0
    print[ P_Cartesian ] 0
end
*xyz 0 1
 C        0.9215110000    -0.2079720000    -0.0338960000 
 C        2.4198700000     0.0565900000     0.0510920000 
 C        2.7922510000     1.3215580000     0.7840440000 
 C        3.7340040000     1.1136740000     1.7026850000 
 C        4.0746650000    -0.3298820000     1.7974530000 
 N        2.9766210000    -1.2107780000     2.2146690000 
 C        3.2145120000    -1.0089010000     0.7944170000 
 H        0.4075110000     0.6114790000    -0.5419360000 
 H        0.4791710000    -0.3106000000     0.9604670000 
 H        0.7178120000    -1.1267070000    -0.5883150000 
 H        2.8107980000     0.1168120000    -0.9738120000 
 H        2.3090310000     2.2720410000     0.5857750000 
 H        4.1735510000     1.8725600000     2.3390440000 
 H        5.0704410000    -0.6604800000     2.0689920000 
 H        2.1969320000    -0.6429220000     2.5350390000 
 H        3.5325010000    -1.8959720000     0.2578910000 
*
