! RI PBE def2-SVP def2-SVP/J NBO PAL2
% maxcore 2000
% output
    # printlevel mini
    print[ P_Basis ] 0
    print[ P_SCFInfo ] 1
    print[ P_SCFIterInfo ] 1
    print[ P_OrbEn ] 0
    print[ P_Cartesian ] 0
end
*xyz 0 1
 C        1.1568510000     0.0512670000    -0.3632820000 
 C        2.6407610000     0.0660190000    -0.0631170000 
 C        3.0945940000     1.1844440000     0.8693990000 
 C        4.4725900000     0.7376980000     1.3957980000 
 C        4.5620120000    -0.7709330000     1.1019960000 
 C        3.1640180000    -1.1881020000     0.6524590000 
 N        3.1751730000    -2.4401190000    -0.0750850000 
 H        0.8386180000     0.9658000000    -0.8702820000 
 H        0.5759650000    -0.0344470000     0.5609860000 
 H        0.8851370000    -0.7890730000    -1.0093680000 
 H        3.1978020000     0.1482770000    -1.0088730000 
 H        2.3804550000     1.2661130000     1.6966020000 
 H        3.1212510000     2.1610650000     0.3805920000 
 H        4.5747550000     0.9495360000     2.4619400000 
 H        5.2780410000     1.2790090000     0.8949950000 
 H        4.9115110000    -1.3604260000     1.9508520000 
 H        5.2604750000    -0.9622620000     0.2796840000 
 H        2.5366090000    -1.3403230000     1.5425500000 
 H        3.7186370000    -2.3472390000    -0.9264490000 
 H        2.2382360000    -2.7129030000    -0.3452960000 
*
