! RI PBE def2-SVP def2-SVP/J NBO PAL2
% maxcore 2000
% output
    # printlevel mini
    print[ P_Basis ] 0
    print[ P_SCFInfo ] 1
    print[ P_SCFIterInfo ] 1
    print[ P_OrbEn ] 0
    print[ P_Cartesian ] 0
end
*xyz 0 1
 C        0.9168840000     0.0381790000    -0.0949070000 
 C        2.4004170000     0.0270990000    -0.0764340000 
 C        3.2470890000     1.0615350000     0.0338120000 
 C        4.6291330000     0.5763410000    -0.0091490000 
 C        4.6302140000    -0.7541690000    -0.1485870000 
 C        3.2142240000    -1.2512370000    -0.1644790000 
 N        2.9409510000    -2.1751970000    -1.2535940000 
 H        0.5261700000     1.0562190000    -0.0596100000 
 H        0.4983830000    -0.5125600000     0.7546990000 
 H        0.5264590000    -0.4394520000    -1.0013620000 
 H        2.9658760000     2.1031170000     0.1376370000 
 H        5.5027680000     1.2111790000     0.0686870000 
 H        5.4847630000    -1.4124020000    -0.2209810000 
 H        3.0515650000    -1.8002460000     0.7780060000 
 H        3.0679570000    -1.7019760000    -2.1409280000 
 H        1.9803370000    -2.4949390000    -1.2182190000 
*
