! RI PBE def2-SVP def2-SVP/J NBO PAL2
% maxcore 2000
% output
    # printlevel mini
    print[ P_Basis ] 0
    print[ P_SCFInfo ] 1
    print[ P_SCFIterInfo ] 1
    print[ P_OrbEn ] 0
    print[ P_Cartesian ] 0
end
*xyz 0 1
 C        0.9905510000    -0.0597810000     0.0411110000 
 C        2.4985510000    -0.0653540000    -0.1373990000 
 C        3.0656160000    -1.2787700000    -0.8265170000 
 C        4.1102570000    -0.9711880000    -1.5882290000 
 C        4.4039240000     0.4992360000    -1.5305280000 
 C        3.0867870000     1.0934990000    -0.9804530000 
 N        2.1499100000     1.5050420000    -2.0138830000 
 H        0.6827200000    -0.8888270000     0.6840760000 
 H        0.4709100000    -0.1566070000    -0.9129010000 
 H        0.6530630000     0.8708460000     0.5017340000 
 H        2.9543180000    -0.0071390000     0.8625200000 
 H        2.6782990000    -2.2794890000    -0.6678280000 
 H        4.7066530000    -1.6808690000    -2.1500700000 
 H        4.6733000000     0.9363490000    -2.4973550000 
 H        5.2453500000     0.6933590000    -0.8511340000 
 H        3.2752990000     1.9685390000    -0.3524890000 
 H        1.9888950000     0.7381540000    -2.6588120000 
 H        2.5455190000     2.2635010000    -2.5559530000 
*
