! RI PBE def2-SVP def2-SVP/J NBO PAL2
% maxcore 2000
% output
    # printlevel mini
    print[ P_Basis ] 0
    print[ P_SCFInfo ] 1
    print[ P_SCFIterInfo ] 1
    print[ P_OrbEn ] 0
    print[ P_Cartesian ] 0
end
*xyz 0 1
 C        1.0705190000    -0.0646700000     0.1030740000 
 C        2.5872840000    -0.1251140000     0.0071160000 
 C        3.0443250000    -1.3517240000    -0.8086160000 
 C        3.4313170000    -0.7704280000    -2.1346030000 
 C        3.4634430000     0.5564330000    -2.1133450000 
 C        3.1547210000     1.1091720000    -0.7519860000 
 N        4.3469420000     1.7455170000    -0.2065860000 
 H        0.6682240000    -0.9368400000     0.6248940000 
 H        0.6237890000    -0.0377080000    -0.8957280000 
 H        0.7406240000     0.8290960000     0.6400790000 
 H        3.0066800000    -0.1465970000     1.0176610000 
 H        2.2425430000    -2.0927240000    -0.8997850000 
 H        3.8903570000    -1.8785800000    -0.3510100000 
 H        3.6675440000    -1.3828590000    -2.9980830000 
 H        3.7417220000     1.1962260000    -2.9423590000 
 H        2.3868760000     1.8911640000    -0.8067090000 
 H        5.1019530000     1.0729790000    -0.1374310000 
 H        4.1697660000     2.1040480000     0.7242380000 
*
