! RI PBE def2-SVP def2-SVP/J NBO PAL2
% maxcore 2000
% output
    # printlevel mini
    print[ P_Basis ] 0
    print[ P_SCFInfo ] 1
    print[ P_SCFIterInfo ] 1
    print[ P_OrbEn ] 0
    print[ P_Cartesian ] 0
end
*xyz 0 1
 C        0.9404910000     0.0949150000     0.0019630000 
 C        2.4497030000     0.1176490000     0.0252060000 
 C        3.1884760000     1.1618230000     0.8865580000 
 C        4.2478440000     0.0933510000     1.2377080000 
 C        5.4893380000     0.1538690000     0.3695060000 
 C        3.2137740000    -0.9763670000     0.8126610000 
 N        3.6972690000    -2.1915630000     0.2101920000 
 H        0.5298440000     0.9798340000    -0.4926820000 
 H        0.5361370000     0.0663450000     1.0186310000 
 H        0.5632610000    -0.7830560000    -0.5317290000 
 H        2.8382110000     0.1483360000    -0.9995060000 
 H        2.5941820000     1.4511090000     1.7574830000 
 H        3.5430100000     2.0677530000     0.3901250000 
 H        4.5451000000     0.0465430000     2.2885830000 
 H        5.2428240000     0.2552340000    -0.6922410000 
 H        6.0985030000    -0.7452030000     0.4898050000 
 H        6.1042320000     1.0158820000     0.6409960000 
 H        2.6176240000    -1.2539350000     1.6891970000 
 H        4.1383210000    -2.0068010000    -0.6823490000 
 H        2.9437560000    -2.8467260000     0.0461150000 
*
