! RI PBE def2-SVP def2-SVP/J NBO PAL2
% maxcore 2000
% output
    # printlevel mini
    print[ P_Basis ] 0
    print[ P_SCFInfo ] 1
    print[ P_SCFIterInfo ] 1
    print[ P_OrbEn ] 0
    print[ P_Cartesian ] 0
end
*xyz 0 1
 C        0.9861620000     0.0000060000     0.2119940000 
 C        2.5027800000    -0.0433460000     0.0227110000 
 C        3.0104830000    -1.4429480000    -0.3214200000 
 C        2.6848260000    -1.8411790000    -1.7558200000 
 C        3.1861330000    -0.7816340000    -2.7273970000 
 C        2.6441510000     0.5838760000    -2.3437990000 
 N        3.0149680000     0.8930610000    -0.9738690000 
 H        0.6778060000    -0.6686420000     1.0204320000 
 H        0.4446320000    -0.2987060000    -0.6880120000 
 H        0.6612540000     1.0106410000     0.4755600000 
 H        2.9582680000     0.2462080000     0.9767570000 
 H        2.5942440000    -2.1681200000     0.3842210000 
 H        4.0974600000    -1.4507320000    -0.1908180000 
 H        1.6020460000    -1.9625990000    -1.8777240000 
 H        3.1293240000    -2.8144030000    -1.9838970000 
 H        2.8930110000    -1.0235550000    -3.7532820000 
 H        4.2806970000    -0.7456150000    -2.6974500000 
 H        1.5530040000     0.5947440000    -2.5152320000 
 H        3.0708800000     1.3553370000    -2.9910240000 
 H        2.7345700000     1.8361250000    -0.7377320000 
*
