! RI PBE def2-SVP def2-SVP/J NBO PAL2
% maxcore 2000
% output
    # printlevel mini
    print[ P_Basis ] 0
    print[ P_SCFInfo ] 1
    print[ P_SCFIterInfo ] 1
    print[ P_OrbEn ] 0
    print[ P_Cartesian ] 0
end
*xyz 0 1
 C        1.1705490000    -0.2930980000     0.3153390000 
 C        2.6030190000    -0.0052810000    -0.1325260000 
 C        2.6227090000     0.3311970000    -1.6183020000 
 C        3.2322550000     1.1211310000     0.7273990000 
 C        4.5031350000     0.5193610000     1.3270950000 
 C        4.1638910000    -0.9592230000     1.3855320000 
 N        3.4928310000    -1.1539560000     0.1141510000 
 H        0.5320130000     0.5866130000     0.1940650000 
 H        1.1431410000    -0.5841930000     1.3690630000 
 H        0.7335520000    -1.1032880000    -0.2771630000 
 H        1.9759400000     1.1848180000    -1.8407280000 
 H        3.6395940000     0.5670000000    -1.9382400000 
 H        2.2752540000    -0.5201330000    -2.2103020000 
 H        2.5400540000     1.4091340000     1.5233870000 
 H        3.4305040000     2.0167100000     0.1354950000 
 H        4.7593830000     0.9421310000     2.3001310000 
 H        5.3535320000     0.6676430000     0.6568500000 
 H        3.5255710000    -1.1629980000     2.2632140000 
 H        5.0456760000    -1.6010870000     1.4619180000 
 H        2.9952880000    -2.0329930000     0.0591210000 
*
