! RI PBE def2-SVP def2-SVP/J NBO PAL2
% maxcore 2000
% output
    # printlevel mini
    print[ P_Basis ] 0
    print[ P_SCFInfo ] 1
    print[ P_SCFIterInfo ] 1
    print[ P_OrbEn ] 0
    print[ P_Cartesian ] 0
end
*xyz 0 1
 C        1.0316430000     0.0145170000    -0.0082300000 
 C        2.5401150000    -0.0220050000     0.0490850000 
 C        3.1988610000     1.2301330000     0.6485110000 
 C        4.5040230000     0.7133950000     1.1943950000 
 C        5.5371890000     1.4300090000     1.6135570000 
 C        4.4181350000    -0.8011460000     1.1657210000 
 N        3.0328310000    -1.1389550000     0.8557310000 
 H        0.6839590000     0.8379960000    -0.6357210000 
 H        0.6106480000     0.1591110000     0.9925110000 
 H        0.6347640000    -0.9176960000    -0.4148620000 
 H        2.9323490000    -0.1657470000    -0.9667590000 
 H        2.5730330000     1.6091510000     1.4669420000 
 H        3.3303990000     2.0456280000    -0.0663970000 
 H        5.5295160000     2.5142170000     1.5862660000 
 H        6.4338910000     0.9568570000     2.0004910000 
 H        4.7398410000    -1.2666270000     2.0994030000 
 H        5.0685410000    -1.1893810000     0.3720520000 
 H        2.4985630000    -1.1660570000     1.7186130000 
*
