! RI PBE def2-SVP def2-SVP/J NBO PAL2
% maxcore 2000
% output
    # printlevel mini
    print[ P_Basis ] 0
    print[ P_SCFInfo ] 1
    print[ P_SCFIterInfo ] 1
    print[ P_OrbEn ] 0
    print[ P_Cartesian ] 0
end
*xyz 0 1
 C        1.0485450000     0.0073600000     0.7185040000 
 C        2.3929130000     0.1231880000     0.0348870000 
 C        3.3316090000     1.2257330000     0.5592830000 
 C        4.2534410000     0.0985450000     1.0846080000 
 C        4.2693840000    -0.0377840000     2.5967780000 
 C        5.6664400000     0.1105800000     0.5341600000 
 N        3.3953760000    -0.9000160000     0.3958910000 
 H        0.3976020000     0.8391600000     0.4340730000 
 H        1.1512760000     0.0159020000     1.8073780000 
 H        0.5452400000    -0.9206620000     0.4309720000 
 H        2.2346750000     0.1576690000    -1.0491710000 
 H        2.9030930000     1.8720180000     1.3276230000 
 H        3.7840170000     1.8460240000    -0.2153630000 
 H        4.8384540000     0.7759010000     3.0556490000 
 H        4.7419530000    -0.9805530000     2.8908900000 
 H        3.2589930000    -0.0188610000     3.0120430000 
 H        6.2360000000     0.9554040000     0.9330680000 
 H        5.6499490000     0.1825440000    -0.5548070000 
 H        6.1906410000    -0.8114730000     0.8014450000 
 H        3.0400180000    -1.6300680000     1.0024910000 
*
