! RI PBE def2-SVP def2-SVP/J NBO PAL2
% maxcore 2000
% output
    # printlevel mini
    print[ P_Basis ] 0
    print[ P_SCFInfo ] 1
    print[ P_SCFIterInfo ] 1
    print[ P_OrbEn ] 0
    print[ P_Cartesian ] 0
end
*xyz 0 1
 C        1.1797210000     0.0184690000    -0.1224740000 
 C        2.6812640000     0.0932530000     0.0531100000 
 C        3.1436240000     1.2694700000     0.9156030000 
 C        4.4333400000     0.7785050000     1.5983120000 
 C        4.5873140000    -0.6587270000     1.1053750000 
 N        3.2399590000    -1.0562710000     0.7496480000 
 C        3.1886390000    -2.2940510000     0.0182930000 
 H        0.8046560000     0.9438060000    -0.5663480000 
 H        0.6957600000    -0.1214010000     0.8476130000 
 H        0.8817830000    -0.8026520000    -0.7781750000 
 H        3.1511830000     0.1817620000    -0.9487710000 
 H        2.3764960000     1.5006830000     1.6588820000 
 H        3.2951070000     2.1678700000     0.3145010000 
 H        4.3290140000     0.8045010000     2.6840270000 
 H        5.3029840000     1.3848060000     1.3403420000 
 H        5.0056330000    -1.3351490000     1.8555160000 
 H        5.2552660000    -0.6915520000     0.2225530000 
 H        3.6421590000    -3.0921040000     0.6107110000 
 H        3.7272960000    -2.2384650000    -0.9467160000 
 H        2.1549910000    -2.5797400000    -0.1843930000 
*
