! RI PBE def2-SVP def2-SVP/J NBO PAL2
% maxcore 2000
% output
    # printlevel mini
    print[ P_Basis ] 0
    print[ P_SCFInfo ] 1
    print[ P_SCFIterInfo ] 1
    print[ P_OrbEn ] 0
    print[ P_Cartesian ] 0
end
*xyz 0 1
 C        1.0535300000    -0.3149200000    -0.5129520000 
 C        2.4950360000     0.0359760000    -0.1325710000 
 C        3.3912580000    -1.1604740000    -0.2639530000 
 C        4.2145980000    -1.0234230000    -1.2934860000 
 C        3.9990810000     0.2987280000    -1.9561860000 
 N        3.1667510000     1.0009960000    -1.0008270000 
 C        2.4139630000     2.1110960000    -1.5044260000 
 H        0.6643680000    -1.0821200000     0.1613770000 
 H        0.9999070000    -0.7044280000    -1.5327370000 
 H        0.3963890000     0.5548890000    -0.4381270000 
 H        2.4875340000     0.4219610000     0.8976790000 
 H        3.3100980000    -2.0264150000     0.3811900000 
 H        4.9334040000    -1.7540410000    -1.6417340000 
 H        3.5167530000     0.1617880000    -2.9449130000 
 H        4.9332220000     0.8459730000    -2.1411500000 
 H        3.0932940000     2.8312140000    -1.9695080000 
 H        1.9082830000     2.6259990000    -0.6831420000 
 H        1.6520400000     1.8407190000    -2.2567320000 
*
