! RI PBE def2-SVP def2-SVP/J NBO PAL2
% maxcore 2000
% output
    # printlevel mini
    print[ P_Basis ] 0
    print[ P_SCFInfo ] 1
    print[ P_SCFIterInfo ] 1
    print[ P_OrbEn ] 0
    print[ P_Cartesian ] 0
end
*xyz 0 1
 C        1.0006820000    -0.0426260000     0.0010070000 
 C        2.3271290000    -0.0925990000    -0.0400990000 
 C        3.1114060000    -1.3713010000    -0.0530540000 
 C        4.1037940000    -1.3860580000    -1.2169240000 
 C        4.9265470000    -0.1026360000    -1.2378530000 
 N        4.1247520000     1.1093630000    -1.2409860000 
 C        3.1848500000     1.1398890000    -0.1264960000 
 H        0.3977230000    -0.9440640000     0.0456550000 
 H        0.4709630000     0.9048780000    -0.0006590000 
 H        2.4424880000    -2.2347310000    -0.0910120000 
 H        3.6774560000    -1.4435970000     0.8863480000 
 H        3.5527690000    -1.4758320000    -2.1605370000 
 H        4.7609420000    -2.2590720000    -1.1461230000 
 H        5.5890240000    -0.0844550000    -2.1076840000 
 H        5.5725100000    -0.0696090000    -0.3509790000 
 H        3.6038790000     1.1630090000    -2.1097190000 
 H        2.5673420000     2.0378420000    -0.2031520000 
 H        3.7764330000     1.2345010000     0.7946770000 
*
