! RI PBE def2-SVP def2-SVP/J NBO PAL2
% maxcore 2000
% output
    # printlevel mini
    print[ P_Basis ] 0
    print[ P_SCFInfo ] 1
    print[ P_SCFIterInfo ] 1
    print[ P_OrbEn ] 0
    print[ P_Cartesian ] 0
end
*xyz 0 1
 C        0.9527120000    -0.1084970000    -0.1670800000 
 C        2.4400760000    -0.0388280000    -0.0553330000 
 C        3.1127150000     1.1088260000     0.0030620000 
 C        4.6076300000     1.1819230000     0.0532970000 
 C        5.2298030000    -0.1622960000    -0.3069890000 
 N        4.5720470000    -1.2878900000     0.3325850000 
 C        3.1669790000    -1.3574520000    -0.0227960000 
 H        0.5060990000     0.8858020000    -0.2197390000 
 H        0.5158360000    -0.6369990000     0.6875370000 
 H        0.6523870000    -0.6639230000    -1.0627130000 
 H        2.5618540000     2.0469030000     0.0027350000 
 H        4.9368940000     1.4970410000     1.0533740000 
 H        4.9659920000     1.9585090000    -0.6326290000 
 H        6.2929360000    -0.1812840000    -0.0528030000 
 H        5.1598790000    -0.3139110000    -1.3902550000 
 H        4.6542030000    -1.1920460000     1.3380540000 
 H        2.6652810000    -2.0321940000     0.6801910000 
 H        3.0712780000    -1.8404030000    -1.0069880000 
*
