! RI PBE def2-SVP def2-SVP/J NBO PAL2
% maxcore 2000
% output
    # printlevel mini
    print[ P_Basis ] 0
    print[ P_SCFInfo ] 1
    print[ P_SCFIterInfo ] 1
    print[ P_OrbEn ] 0
    print[ P_Cartesian ] 0
end
*xyz 0 1
 C        1.0319650000     0.0959390000     0.1273060000 
 C        2.5108870000    -0.0077990000     0.0257700000 
 C        3.2742070000    -1.0972470000    -0.0640700000 
 C        2.8696830000    -2.5269390000    -0.0889870000 
 C        4.7192980000    -0.7103600000    -0.1678930000 
 N        4.7223960000     0.7177830000     0.1236450000 
 C        3.3626250000     1.2259490000    -0.0082150000 
 H        0.5469900000    -0.8806720000     0.1239190000 
 H        0.6214930000     0.6780100000    -0.7051920000 
 H        0.7384960000     0.6154910000     1.0457460000 
 H        1.7886270000    -2.6527940000    -0.0222100000 
 H        3.3255710000    -3.0768980000     0.7412550000 
 H        3.2086590000    -3.0145230000    -1.0096940000 
 H        5.1068150000    -0.9573560000    -1.1724120000 
 H        5.3418850000    -1.2653100000     0.5480190000 
 H        5.3823190000     1.2269120000    -0.4433090000 
 H        3.1875050000     1.7819760000    -0.9465130000 
 H        3.1130880000     1.9157360000     0.8103440000 
*
