! RI PBE def2-SVP def2-SVP/J NBO PAL2
% maxcore 2000
% output
    # printlevel mini
    print[ P_Basis ] 0
    print[ P_SCFInfo ] 1
    print[ P_SCFIterInfo ] 1
    print[ P_OrbEn ] 0
    print[ P_Cartesian ] 0
end
*xyz 0 1
 C        1.1034200000     0.1264690000     0.6912180000 
 C        2.4012760000     0.0377550000    -0.0847480000 
 C        3.4872090000     1.0686680000     0.3006590000 
 C        4.3362270000    -0.0639030000     0.9559690000 
 C        4.3100660000    -0.0283670000     2.4708620000 
 N        5.7099260000    -0.2460470000     0.5329600000 
 C        3.3634380000    -1.0961470000     0.3389080000 
 H        0.5533720000     1.0365330000     0.4352440000 
 H        1.2783250000     0.1395840000     1.7705670000 
 H        0.4561170000    -0.7277960000     0.4732410000 
 H        2.1731360000     0.0308500000    -1.1535320000 
 H        3.1684150000     1.8800020000     0.9615480000 
 H        3.9896620000     1.5053540000    -0.5657060000 
 H        4.8876710000     0.8234050000     2.8459890000 
 H        3.2922700000     0.0709560000     2.8513330000 
 H        4.7471070000    -0.9439970000     2.8759200000 
 H        6.2988810000     0.4924790000     0.9020290000 
 H        5.7833800000    -0.2095490000    -0.4769840000 
 H        2.9625940000    -1.8446240000     1.0272550000 
 H        3.8129080000    -1.6182240000    -0.5087330000 
*
