! RI PBE def2-SVP def2-SVP/J NBO PAL2
% maxcore 2000
% output
    # printlevel mini
    print[ P_Basis ] 0
    print[ P_SCFInfo ] 1
    print[ P_SCFIterInfo ] 1
    print[ P_OrbEn ] 0
    print[ P_Cartesian ] 0
end
*xyz 0 1
 C        1.0939950000    -0.0488600000     0.8340390000 
 C        2.2931140000     0.0876350000    -0.0817020000 
 C        3.3254460000     1.1388170000     0.3888860000 
 C        4.1938580000    -0.0000790000     0.9608440000 
 C        5.6842470000     0.0712520000     0.7347210000 
 N        6.3340630000    -1.1576890000     1.1646990000 
 C        3.3713430000    -1.0006810000     0.1250590000 
 H        0.4506950000     0.8340560000     0.7788760000 
 H        1.4031010000    -0.1689610000     1.8770980000 
 H        0.4910690000    -0.9209810000     0.5658100000 
 H        1.9521770000     0.2095940000    -1.1131830000 
 H        2.9699710000     1.9044530000     1.0826330000 
 H        3.8210480000     1.6347810000    -0.4505240000 
 H        3.9969670000    -0.1350430000     2.0305830000 
 H        6.0752700000     0.9793500000     1.2245490000 
 H        5.8691600000     0.1914960000    -0.3390830000 
 H        6.2370230000    -1.2747690000     2.1664150000 
 H        7.3262380000    -1.1296510000     0.9670240000 
 H        3.0537920000    -1.9252980000     0.6108030000 
 H        3.8910140000    -1.2596250000    -0.8006380000 
*
