! RI PBE def2-SVP def2-SVP/J NBO PAL2
% maxcore 2000
% output
    # printlevel mini
    print[ P_Basis ] 0
    print[ P_SCFInfo ] 1
    print[ P_SCFIterInfo ] 1
    print[ P_OrbEn ] 0
    print[ P_Cartesian ] 0
end
*xyz 0 1
 C        0.9265650000    -0.0598150000     0.0937910000 
 C        2.4066900000     0.0632210000     0.1005270000 
 C        3.2377060000     1.1612470000     0.1051910000 
 C        4.5492610000     0.6427000000     0.1106320000 
 C        5.8365260000     1.3920390000     0.1170610000 
 N        4.5305680000    -0.6811990000     0.1093990000 
 N        3.2322710000    -1.0033440000     0.1033030000 
 H        0.4717080000     0.9301520000     0.0925830000 
 H        0.5603010000    -0.5940370000     0.9751990000 
 H        0.5682190000    -0.5925560000    -0.7917580000 
 H        2.9366220000     2.1970770000     0.1047310000 
 H        5.6562960000     2.4675370000     0.1170880000 
 H        6.4380730000     1.1469400000    -0.7611270000 
 H        6.4300840000     1.1455590000     1.0002850000 
 H        2.9721800000    -1.9737200000     0.1012950000 
*
