! RI PBE def2-SVP def2-SVP/J NBO PAL2
% maxcore 2000
% output
    # printlevel mini
    print[ P_Basis ] 0
    print[ P_SCFInfo ] 1
    print[ P_SCFIterInfo ] 1
    print[ P_OrbEn ] 0
    print[ P_Cartesian ] 0
end
*xyz 0 1
 C        1.0042790000     0.1063400000    -0.1526070000 
 C        2.5248760000     0.0052900000    -0.0594760000 
 C        2.9844200000     0.0203070000     1.3865440000 
 C        3.0375150000    -1.2051470000    -0.8599220000 
 C        3.3246060000    -0.5613360000    -2.1815280000 
 N        3.3659070000     0.7108220000    -2.1229920000 
 N        3.1627920000     1.1021590000    -0.8200810000 
 H        0.5250530000    -0.7346210000     0.3558140000 
 H        0.6796620000     0.1056180000    -1.1962220000 
 H        0.6490420000     1.0271050000     0.3190820000 
 H        2.5634420000    -0.8254100000     1.9361620000 
 H        2.6611800000     0.9363730000     1.8883960000 
 H        4.0728660000    -0.0304660000     1.4433590000 
 H        2.3104900000    -2.0188280000    -0.9127780000 
 H        3.9583230000    -1.6120350000    -0.4229560000 
 H        3.5370370000    -1.0722720000    -3.1121520000 
 H        2.6744910000     1.9873920000    -0.7925240000 
*
