! RI PBE def2-SVP def2-SVP/J NBO PAL2
% maxcore 2000
% output
    # printlevel mini
    print[ P_Basis ] 0
    print[ P_SCFInfo ] 1
    print[ P_SCFIterInfo ] 1
    print[ P_OrbEn ] 0
    print[ P_Cartesian ] 0
end
*xyz 0 1
 C        1.0190580000    -0.2043530000     0.6077230000 
 C        2.2414620000     0.0383390000    -0.2540230000 
 C        3.1954050000     1.1267160000     0.2780550000 
 C        4.0632490000    -0.0297660000     0.8013100000 
 C        5.5567180000     0.0321040000     0.5946970000 
 N        6.1911840000    -1.1739010000     1.1059010000 
 N        3.3346050000    -0.9373600000    -0.0958870000 
 H        0.3028780000     0.6167050000     0.5094120000 
 H        1.2890130000    -0.2935570000     1.6642640000 
 H        0.5104660000    -1.1255370000     0.3082780000 
 H        1.9323280000     0.1576560000    -1.2984690000 
 H        2.7887310000     1.8234400000     1.0113780000 
 H        3.6886380000     1.6843460000    -0.5200350000 
 H        3.8624050000    -0.2197500000     1.8678810000 
 H        5.9357980000     0.9643610000     1.0471310000 
 H        5.7438690000     0.0897340000    -0.4812240000 
 H        6.2106330000    -1.1628350000     2.1185970000 
 H        7.1509740000    -1.2389120000     0.7934470000 
 H        3.0832960000    -1.8413190000     0.2832720000 
*
