! RI PBE def2-SVP def2-SVP/J NBO PAL2
% maxcore 2000
% output
    # printlevel mini
    print[ P_Basis ] 0
    print[ P_SCFInfo ] 1
    print[ P_SCFIterInfo ] 1
    print[ P_OrbEn ] 0
    print[ P_Cartesian ] 0
end
*xyz 0 1
 C        0.9879280000    -0.0923420000    -0.1019990000 
 C        2.4705940000    -0.0283040000    -0.0554590000 
 C        3.3237850000     1.0428720000     0.0496330000 
 C        4.6532070000     0.5459240000     0.0574970000 
 C        4.5773150000    -0.8202210000    -0.0485230000 
 N        5.5332550000    -1.8514110000    -0.1156050000 
 N        3.2508200000    -1.1484150000    -0.1171000000 
 H        0.5743480000     0.9147560000    -0.0460870000 
 H        0.5741550000    -0.6670180000     0.7333190000 
 H        0.6234160000    -0.5484740000    -1.0284540000 
 H        3.0186530000     2.0762240000     0.1189110000 
 H        5.5633440000     1.1204800000     0.1392300000 
 H        6.2821380000    -1.6246770000    -0.7546920000 
 H        5.9408780000    -2.0591400000     0.7872760000 
 H        2.9289440000    -2.0927440000    -0.2377470000 
*
