! RI PBE def2-SVP def2-SVP/J NBO PAL2
% maxcore 2000
% output
    # printlevel mini
    print[ P_Basis ] 0
    print[ P_SCFInfo ] 1
    print[ P_SCFIterInfo ] 1
    print[ P_OrbEn ] 0
    print[ P_Cartesian ] 0
end
*xyz 0 1
 C        1.1589450000    -0.0122540000     0.3906890000 
 C        2.6189280000     0.1036040000    -0.0332770000 
 C        3.3830570000     1.2115740000     0.7408380000 
 C        3.9015250000     0.0844710000     1.6436130000 
 N        3.5139610000    -0.8868460000     0.6098890000 
 C        2.7210690000     0.1419730000    -1.4874420000 
 C        2.7882540000     0.1915260000    -2.6855280000 
 H        1.0805560000    -0.0041550000     1.4809340000 
 H        0.7261810000    -0.9418840000     0.0132000000 
 H        0.5719400000     0.8186390000    -0.0065010000 
 H        2.7669820000     1.9871580000     1.1942830000 
 H        4.1671100000     1.6644720000     0.1367940000 
 H        3.3388090000     0.0038780000     2.5816080000 
 H        4.9686410000     0.0865340000     1.8768890000 
 H        3.0507680000    -1.7284540000     0.9312170000 
 H        2.8612750000     0.2286750000    -3.7465960000 
*
