! RI PBE def2-SVP def2-SVP/J NBO PAL2
% maxcore 2000
% output
    # printlevel mini
    print[ P_Basis ] 0
    print[ P_SCFInfo ] 1
    print[ P_SCFIterInfo ] 1
    print[ P_OrbEn ] 0
    print[ P_Cartesian ] 0
end
*xyz 0 1
 C        1.0063300000    -0.0120230000     0.3543810000 
 C        2.4647480000     0.1188740000    -0.0627830000 
 C        3.2405940000     1.2198910000     0.7067570000 
 C        3.8076680000     0.0765860000     1.5609130000 
 N        3.3783550000    -0.8753000000     0.5248720000 
 C        2.5550850000     0.1932000000    -1.5244120000 
 N        2.6102030000     0.2729750000    -2.6702950000 
 H        0.9336480000    -0.0212760000     1.4443300000 
 H        0.5772750000    -0.9378720000    -0.0356310000 
 H        0.4145590000     0.8227640000    -0.0270620000 
 H        2.6249340000     1.9691840000     1.2016770000 
 H        3.9943460000     1.7063850000     0.0906510000 
 H        3.2904810000    -0.0305400000     2.5213190000 
 H        4.8843610000     0.0821660000     1.7409390000 
 H        2.9369210000    -1.7305950000     0.8388340000 
*
