! RI PBE def2-SVP def2-SVP/J NBO PAL2
% maxcore 2000
% output
    # printlevel mini
    print[ P_Basis ] 0
    print[ P_SCFInfo ] 1
    print[ P_SCFIterInfo ] 1
    print[ P_OrbEn ] 0
    print[ P_Cartesian ] 0
end
*xyz 0 1
 C        0.8778340000     0.1004870000    -0.2813190000 
 C        2.3737490000     0.0882040000    -0.3570330000 
 C        3.1692770000    -0.8197670000    -1.2016760000 
 C        2.6007150000    -1.8658570000    -2.1105610000 
 N        2.9874880000     0.5856240000    -1.5986180000 
 C        4.1191580000     1.4103060000    -1.4193720000 
 N        4.4332430000     2.3746420000    -2.1618450000 
 H        0.5298860000    -0.5736510000     0.5058800000 
 H        0.4275530000    -0.2060500000    -1.2247890000 
 H        0.5172070000     1.1051810000    -0.0486720000 
 H        2.8726400000     0.4071200000     0.5581670000 
 H        4.1561060000    -1.0577490000    -0.8045370000 
 H        1.6248470000    -1.5726210000    -2.4959790000 
 H        2.4944590000    -2.8157720000    -1.5799170000 
 H        3.2630190000    -2.0286060000    -2.9640570000 
 H        4.7627130000     1.1751060000    -0.5592370000 
 H        3.7428070000     2.4647830000    -2.9100350000 
*
