! RI PBE def2-SVP def2-SVP/J NBO PAL2
% maxcore 2000
% output
    # printlevel mini
    print[ P_Basis ] 0
    print[ P_SCFInfo ] 1
    print[ P_SCFIterInfo ] 1
    print[ P_OrbEn ] 0
    print[ P_Cartesian ] 0
end
*xyz 0 1
 C        0.7672320000     0.2883100000     0.2501140000 
 C        2.2360170000    -0.0237170000     0.1050180000 
 C        3.2543480000     0.9484060000     0.7407480000 
 C        3.8932320000    -0.2666170000     1.4388760000 
 N        2.7628420000    -1.0687920000     0.9931800000 
 C        2.7493650000    -2.4142360000     0.7941320000 
 N        3.5396390000    -3.2921380000     1.2663050000 
 H        0.5026080000     1.1576860000    -0.3578860000 
 H        0.5214630000     0.5027140000     1.2926920000 
 H        0.1492880000    -0.5500940000    -0.0807430000 
 H        2.4756930000    -0.2309970000    -0.9467190000 
 H        2.7877620000     1.6482910000     1.4345040000 
 H        3.8923070000     1.4958600000     0.0496750000 
 H        4.0135000000    -0.2059860000     2.5236850000 
 H        4.8441620000    -0.5887540000     0.9954810000 
 H        1.9218460000    -2.7425080000     0.1590330000 
 H        4.2651050000    -2.8645290000     1.8432070000 
*
