! RI PBE def2-SVP def2-SVP/J NBO PAL2
% maxcore 2000
% output
    # printlevel mini
    print[ P_Basis ] 0
    print[ P_SCFInfo ] 1
    print[ P_SCFIterInfo ] 1
    print[ P_OrbEn ] 0
    print[ P_Cartesian ] 0
end
*xyz 0 1
 C        0.9783080000     0.4689620000    -0.0136810000 
 C        2.4199350000     0.1949280000    -0.3780450000 
 C        3.4714050000     1.0230820000     0.3971240000 
 C        3.7961770000    -0.2439890000     1.2081590000 
 N        3.0049650000    -0.9990190000     0.2413410000 
 N        2.3107510000    -2.1070680000     0.4604350000 
 C        2.6564200000    -2.8878750000     1.4078400000 
 H        0.6654530000     1.4313890000    -0.4271230000 
 H        0.8427350000     0.5000760000     1.0708930000 
 H        0.3247560000    -0.3077020000    -0.4138410000 
 H        2.5405660000     0.2008650000    -1.4665120000 
 H        3.0708540000     1.8603180000     0.9670320000 
 H        4.3006280000     1.3664920000    -0.2197210000 
 H        3.3554870000    -0.2613370000     2.2154640000 
 H        4.8467920000    -0.5382590000     1.2804520000 
 H        2.0902460000    -3.8022350000     1.5355050000 
 H        3.4990310000    -2.6930280000     2.0738960000 
*
