! RI PBE def2-SVP def2-SVP/J NBO PAL2
% maxcore 2000
% output
    # printlevel mini
    print[ P_Basis ] 0
    print[ P_SCFInfo ] 1
    print[ P_SCFIterInfo ] 1
    print[ P_OrbEn ] 0
    print[ P_Cartesian ] 0
end
*xyz 0 1
 C        0.9986070000    -0.0086490000    -0.0757470000 
 C        2.5125400000     0.0570040000    -0.1297680000 
 C        3.1224920000     1.2645770000     0.6133270000 
 C        4.2676380000     0.6800830000     1.4507260000 
 N        4.5248970000    -0.6030310000     0.8180870000 
 C        3.2166190000    -1.1502530000     0.4989920000 
 C        3.3105120000    -2.3666610000    -0.3950740000 
 H        0.5485720000     0.8660920000    -0.5520240000 
 H        0.6448020000    -0.0420150000     0.9592960000 
 H        0.6152020000    -0.8949780000    -0.5889250000 
 H        2.8275750000     0.0968870000    -1.1783150000 
 H        2.3826140000     1.7569950000     1.2489260000 
 H        3.4880940000     2.0117640000    -0.0930300000 
 H        3.9434380000     0.5754280000     2.4993620000 
 H        5.1639150000     1.3050780000     1.4442260000 
 H        5.0703040000    -1.2226600000     1.4038210000 
 H        2.6577110000    -1.4234390000     1.4165680000 
 H        3.8585660000    -2.1200070000    -1.3077200000 
 H        2.3170020000    -2.7302120000    -0.6691170000 
 H        3.8336980000    -3.1873020000     0.1034900000 
*
