! RI PBE def2-SVP def2-SVP/J NBO PAL2
% maxcore 2000
% output
    # printlevel mini
    print[ P_Basis ] 0
    print[ P_SCFInfo ] 1
    print[ P_SCFIterInfo ] 1
    print[ P_OrbEn ] 0
    print[ P_Cartesian ] 0
end
*xyz 0 1
 C        1.0075040000    -0.0740180000     0.0964320000 
 C        2.5175880000    -0.0664750000     0.0897380000 
 C        3.2695290000     1.0079840000     0.9017720000 
 C        4.3168160000    -0.0469750000     1.3023000000 
 N        5.5306500000     0.0743670000     0.5238340000 
 C        3.2781600000    -1.1411720000     0.8968480000 
 C        3.7356350000    -2.4050720000     0.2118440000 
 H        0.6005100000     0.8018500000    -0.4171410000 
 H        0.6242810000    -0.0658300000     1.1215170000 
 H        0.6089710000    -0.9627780000    -0.4015750000 
 H        2.8781100000    -0.0691120000    -0.9461960000 
 H        2.6817840000     1.3445180000     1.7596180000 
 H        3.6504300000     1.8844070000     0.3730520000 
 H        4.6013930000    -0.0586640000     2.3575310000 
 H        5.3276210000     0.1550010000    -0.4655120000 
 H        6.1240340000    -0.7382410000     0.6419920000 
 H        2.6853530000    -1.3921620000     1.7848480000 
 H        4.3680800000    -2.1832180000    -0.6526740000 
 H        2.8833680000    -2.9889320000    -0.1472780000 
 H        4.3092820000    -3.0463670000     0.8880620000 
*
