! RI PBE def2-SVP def2-SVP/J NBO PAL2
% maxcore 2000
% output
    # printlevel mini
    print[ P_Basis ] 0
    print[ P_SCFInfo ] 1
    print[ P_SCFIterInfo ] 1
    print[ P_OrbEn ] 0
    print[ P_Cartesian ] 0
end
*xyz 0 1
 C        1.1453660000    -0.1098820000     0.1536230000 
 C        2.4600310000    -0.0194400000     0.0191400000 
 C        3.3185910000     1.2116490000    -0.0402430000 
 C        4.5911670000     0.7239480000    -0.7374120000 
 N        4.6064230000    -0.6875500000    -0.4082680000 
 C        3.3534130000    -1.1964090000    -0.1461670000 
 N        2.9697640000    -2.4049910000    -0.0411300000 
 H        0.5172130000     0.7690650000     0.2430050000 
 H        0.6771960000    -1.0871170000     0.1782380000 
 H        3.5602650000     1.5420170000     0.9752110000 
 H        2.8446540000     2.0447980000    -0.5592850000 
 H        5.4896650000     1.2240610000    -0.3695270000 
 H        4.5285590000     0.8895240000    -1.8212200000 
 H        5.3139980000    -1.2903590000    -0.7929050000 
 H        3.7292860000    -3.0608040000    -0.2119680000 
*
