! RI PBE def2-SVP def2-SVP/J NBO PAL2
% maxcore 2000
% output
    # printlevel mini
    print[ P_Basis ] 0
    print[ P_SCFInfo ] 1
    print[ P_SCFIterInfo ] 1
    print[ P_OrbEn ] 0
    print[ P_Cartesian ] 0
end
*xyz 0 1
 C        0.7863380000     0.1398700000    -0.2076400000 
 C        2.2750890000     0.0866420000    -0.0043950000 
 C        2.7130860000     0.1143910000     1.4336030000 
 C        3.1168600000    -0.7231810000    -0.9768090000 
 N        2.6102930000    -1.5038700000    -2.0639560000 
 C        3.1485400000     0.7644900000    -1.0474090000 
 N        4.3512630000     1.4917390000    -0.7780750000 
 H        0.2887140000    -0.7141470000     0.2647230000 
 H        0.5206270000     0.1298280000    -1.2664620000 
 H        0.3646880000     1.0491530000     0.2318480000 
 H        2.2901560000    -0.7299350000     1.9867460000 
 H        2.3835570000     1.0320190000     1.9330740000 
 H        3.7994040000     0.0614530000     1.5280210000 
 H        4.0008830000    -1.1653570000    -0.5177200000 
 H        2.1634820000    -0.9330440000    -2.7665550000 
 H        1.9484190000    -2.2037770000    -1.7547240000 
 H        2.5817050000     1.1821680000    -1.8793140000 
 H        5.0800000000     0.8988370000    -0.4085940000 
 H        4.1997040000     2.2522020000    -0.1282620000 
*
