! RI PBE def2-SVP def2-SVP/J NBO PAL2
% maxcore 2000
% output
    # printlevel mini
    print[ P_Basis ] 0
    print[ P_SCFInfo ] 1
    print[ P_SCFIterInfo ] 1
    print[ P_OrbEn ] 0
    print[ P_Cartesian ] 0
end
*xyz 0 1
 C        0.9067020000     0.0813530000    -0.0431370000 
 C        2.4162560000     0.0849390000    -0.0275900000 
 C        3.1703650000     1.1289330000     0.8241160000 
 C        4.2103040000     0.0570940000     1.1966040000 
 N        5.4160680000     0.1625030000     0.4025640000 
 C        3.1707290000    -1.0137300000     0.7640260000 
 N        3.6768130000    -2.2161170000     0.1569680000 
 H        0.5045750000     0.9674760000    -0.5424800000 
 H        0.5083270000     0.0667850000     0.9761740000 
 H        0.5153500000    -0.7963470000    -0.5666170000 
 H        2.7963480000     0.1037160000    -1.0567170000 
 H        2.5814630000     1.4447150000     1.6886320000 
 H        3.5579100000     2.0177020000     0.3223510000 
 H        4.5047470000     0.0111580000     2.2479070000 
 H        5.2055030000     0.3480780000    -0.5709270000 
 H        5.9427190000    -0.7026630000     0.4434920000 
 H        2.5735030000    -1.2981840000     1.6375020000 
 H        4.0947960000    -2.0195450000    -0.7441330000 
 H        2.9435090000    -2.8969650000     0.0084750000 
*
