! RI PBE def2-SVP def2-SVP/J NBO PAL2
% maxcore 2000
% output
    # printlevel mini
    print[ P_Basis ] 0
    print[ P_SCFInfo ] 1
    print[ P_SCFIterInfo ] 1
    print[ P_OrbEn ] 0
    print[ P_Cartesian ] 0
end
*xyz 0 1
 C        0.8809600000     0.0130180000    -0.0238370000 
 C        2.3933060000     0.0369170000     0.0293370000 
 C        3.0169760000     1.1874100000     0.8196640000 
 C        4.3688100000     0.6313860000     1.2564480000 
 N        4.0684470000    -0.7745670000     1.4224440000 
 C        3.0025410000    -1.1967890000     0.6681370000 
 N        2.5515920000    -2.3708520000     0.4834420000 
 H        0.4931200000     0.8840830000    -0.5576260000 
 H        0.4604670000     0.0142370000     0.9851860000 
 H        0.5362330000    -0.8913250000    -0.5262730000 
 H        2.7862760000     0.0592320000    -0.9964000000 
 H        2.4049640000     1.3967360000     1.7023280000 
 H        3.1071930000     2.1094380000     0.2443430000 
 H        4.7269280000     1.0738250000     2.1890950000 
 H        5.1341640000     0.8008490000     0.4858150000 
 H        4.7722550000    -1.4290700000     1.7186930000 
 H        3.1054480000    -3.0717600000     0.9729130000 
*
