! RI PBE def2-SVP def2-SVP/J NBO PAL2
% maxcore 2000
% output
    # printlevel mini
    print[ P_Basis ] 0
    print[ P_SCFInfo ] 1
    print[ P_SCFIterInfo ] 1
    print[ P_OrbEn ] 0
    print[ P_Cartesian ] 0
end
*xyz 0 1
 C        0.9999090000    -0.0114190000     0.0779620000 
 N        2.4378400000    -0.0319860000     0.0847620000 
 C        3.2479720000     1.0619580000     0.0875840000 
 C        4.5513620000     0.6302840000     0.0941120000 
 C        4.5360590000    -0.7866220000     0.0952930000 
 C        5.7236040000    -1.6917900000     0.1015310000 
 C        3.2107670000    -1.1577910000     0.0896060000 
 H        0.6586170000     1.0229900000     0.0754360000 
 H        0.5959380000    -0.5062790000     0.9647740000 
 H        0.6042850000    -0.5078670000    -0.8117220000 
 H        2.8322290000     2.0573960000     0.0846980000 
 H        5.4275090000     1.2612940000     0.0976160000 
 H        6.6481870000    -1.1119680000     0.1062680000 
 H        5.7485320000    -2.3395700000    -0.7792250000 
 H        5.7393790000    -2.3393920000     0.9826220000 
 H        2.7574120000    -2.1376390000     0.0884820000 
*
