! RI PBE def2-SVP def2-SVP/J NBO PAL2
% maxcore 2000
% output
    # printlevel mini
    print[ P_Basis ] 0
    print[ P_SCFInfo ] 1
    print[ P_SCFIterInfo ] 1
    print[ P_OrbEn ] 0
    print[ P_Cartesian ] 0
end
*xyz 0 1
 C        1.0753660000    -0.0545290000     0.0593430000 
 C        2.4027280000    -0.0729700000     0.0088290000 
 C        3.2040370000    -1.3401560000    -0.0281120000 
 C        4.1703500000    -1.3222160000    -1.2093000000 
 N        4.9911850000    -0.1290160000    -1.1441560000 
 C        4.2020080000     1.0820290000    -1.2550990000 
 C        3.2370950000     1.1703600000    -0.0759340000 
 H        0.4976000000    -0.9719770000     0.1025350000 
 H        0.5219720000     0.8787890000     0.0672830000 
 H        2.5478840000    -2.2120000000    -0.0837920000 
 H        3.7971590000    -1.4200780000     0.8909350000 
 H        3.5836700000    -1.3793370000    -2.1440950000 
 H        4.8205380000    -2.2003820000    -1.1740140000 
 H        5.7052690000    -0.1520470000    -1.8596080000 
 H        3.6165660000     1.1189360000    -2.1916850000 
 H        4.8751010000     1.9434850000    -1.2529520000 
 H        2.6040900000     2.0564210000    -0.1650960000 
 H        3.8325800000     1.2695770000     0.8396990000 
*
