! RI PBE def2-SVP def2-SVP/J NBO PAL2
% maxcore 2000
% output
    # printlevel mini
    print[ P_Basis ] 0
    print[ P_SCFInfo ] 1
    print[ P_SCFIterInfo ] 1
    print[ P_OrbEn ] 0
    print[ P_Cartesian ] 0
end
*xyz 0 1
 C        1.0253750000     0.0052120000    -0.0682550000 
 C        2.5114950000    -0.0065740000    -0.1246970000 
 C        3.3077900000    -1.0727090000    -0.1671000000 
 C        4.7658570000    -0.7172440000    -0.1316780000 
 N        5.3439160000    -1.1573640000     1.1336890000 
 C        4.7412310000     0.8057730000    -0.4085840000 
 C        3.3100760000     1.2693780000    -0.1075090000 
 H        0.6138010000    -1.0050350000    -0.0603790000 
 H        0.6044230000     0.5415110000    -0.9252710000 
 H        0.6727230000     0.5267940000     0.8281000000 
 H        2.9698110000    -2.1029080000    -0.1483650000 
 H        5.3248160000    -1.2367190000    -0.9181850000 
 H        4.8621400000    -0.7162580000     1.9087940000 
 H        6.3210900000    -0.8959980000     1.1921940000 
 H        4.9672580000     0.9865190000    -1.4628060000 
 H        5.4981440000     1.3314550000     0.1781290000 
 H        2.9439820000     1.9907970000    -0.8453140000 
 H        3.2146730000     1.7639910000     0.8677380000 
*
