! RI PBE def2-SVP def2-SVP/J NBO PAL2
% maxcore 2000
% output
    # printlevel mini
    print[ P_Basis ] 0
    print[ P_SCFInfo ] 1
    print[ P_SCFIterInfo ] 1
    print[ P_OrbEn ] 0
    print[ P_Cartesian ] 0
end
*xyz 0 1
 C        0.8373200000     0.1093420000     0.1127450000 
 C        2.3204280000     0.0258120000     0.0348970000 
 C        3.0892210000    -1.0691930000    -0.0578840000 
 C        4.5452670000    -0.6822180000    -0.0710900000 
 N        5.4027870000    -1.1963460000    -1.1304990000 
 C        4.4799390000     0.8173780000    -0.0386410000 
 C        3.2039020000     1.2058400000     0.0475140000 
 H        0.3784000000    -0.8783730000     0.0534780000 
 H        0.4358940000     0.7234100000    -0.6999030000 
 H        0.5182060000     0.5780390000     1.0490520000 
 H        2.7441870000    -2.0956550000    -0.0910880000 
 H        4.9868280000    -1.0051940000     0.8862680000 
 H        5.0058020000    -0.9507940000    -2.0305710000 
 H        5.4347130000    -2.2081650000    -1.0912230000 
 H        5.3617240000     1.4428190000    -0.0669420000 
 H        2.8481910000     2.2269890000     0.1195790000 
*
