! RI PBE def2-SVP def2-SVP/J NBO PAL2
% maxcore 2000
% output
    # printlevel mini
    print[ P_Basis ] 0
    print[ P_SCFInfo ] 1
    print[ P_SCFIterInfo ] 1
    print[ P_OrbEn ] 0
    print[ P_Cartesian ] 0
end
*xyz 0 1
 C        0.6095220000    -0.0674960000    -0.3816100000 
 C        2.0870450000    -0.0551940000    -0.0813570000 
 C        2.4698670000    -0.0647490000     1.3804650000 
 C        2.0435450000     1.1721520000     2.1528710000 
 N        2.5596160000     1.1163350000     3.5139660000 
 C        2.9820650000    -0.8039060000    -1.0231160000 
 C        2.9824200000     0.6980750000    -1.0212510000 
 H        0.1253510000    -0.9385510000     0.0715880000 
 H        0.4319120000    -0.1117930000    -1.4587960000 
 H        0.1095880000     0.8279150000    -0.0026490000 
 H        3.5560720000    -0.1616900000     1.4745400000 
 H        2.0377710000    -0.9547060000     1.8591070000 
 H        0.9491200000     1.2797080000     2.1052860000 
 H        2.4668680000     2.0571390000     1.6665260000 
 H        2.1587690000     0.3268300000     4.0069740000 
 H        2.2951880000     1.9458360000     4.0304230000 
 H        2.5246480000    -1.3102810000    -1.8652430000 
 H        3.8460600000    -1.3118080000    -0.6108380000 
 H        2.5280380000     1.2078050000    -1.8628050000 
 H        3.8480250000     1.2028990000    -0.6079600000 
*
