! RI PBE def2-SVP def2-SVP/J NBO PAL2
% maxcore 2000
% output
    # printlevel mini
    print[ P_Basis ] 0
    print[ P_SCFInfo ] 1
    print[ P_SCFIterInfo ] 1
    print[ P_OrbEn ] 0
    print[ P_Cartesian ] 0
end
*xyz 0 1
 C        0.9015910000    -0.0326400000    -0.1250930000 
 C        2.4269860000    -0.0704990000    -0.0569640000 
 C        2.9781880000    -1.3541490000     0.5922750000 
 C        3.3324260000    -0.9932030000     2.0529060000 
 N        4.5205180000    -1.6087860000     2.6211530000 
 C        3.4410650000     0.5046940000     1.9920600000 
 C        2.9711020000     0.9980900000     0.8532710000 
 H        0.5203750000    -0.8147370000    -0.7869810000 
 H        0.5451340000     0.9290070000    -0.5034480000 
 H        0.4647710000    -0.1816140000     0.8662070000 
 H        2.8118220000     0.0501790000    -1.0763570000 
 H        3.9037600000    -1.6517800000     0.0895330000 
 H        2.2830840000    -2.1946290000     0.5183300000 
 H        2.5046080000    -1.2595720000     2.7244830000 
 H        5.3201130000    -1.4389340000     2.0208970000 
 H        4.4050800000    -2.6127020000     2.6877210000 
 H        3.8360470000     1.0789610000     2.8221390000 
 H        2.9150310000     2.0534130000     0.6075700000 
*
