! RI PBE def2-SVP def2-SVP/J NBO PAL2
% maxcore 2000
% output
    # printlevel mini
    print[ P_Basis ] 0
    print[ P_SCFInfo ] 1
    print[ P_SCFIterInfo ] 1
    print[ P_OrbEn ] 0
    print[ P_Cartesian ] 0
end
*xyz 0 1
 C        1.1292550000     0.0016780000    -0.0162710000 
 N        2.5639620000     0.0833920000    -0.0103840000 
 C        3.3284920000     1.1909100000    -0.0094940000 
 C        4.6371310000     0.7670890000    -0.0030740000 
 C        4.5578080000    -0.6373270000    -0.0004390000 
 C        5.6703280000    -1.6270370000     0.0063480000 
 N        3.2907160000    -1.0352250000    -0.0049520000 
 H        0.7179420000     1.0101580000    -0.0201100000 
 H        0.7778800000    -0.5279680000     0.8708180000 
 H        0.7853710000    -0.5316690000    -0.9040780000 
 H        2.8938950000     2.1783570000    -0.0134160000 
 H        5.5228580000     1.3815980000    -0.0006310000 
 H        6.6364630000    -1.1211810000     0.0094560000 
 H        5.6265200000    -2.2735380000    -0.8731690000 
 H        5.6189700000    -2.2699460000     0.8880850000 
*
