! RI PBE def2-SVP def2-SVP/J NBO PAL2
% maxcore 2000
% output
    # printlevel mini
    print[ P_Basis ] 0
    print[ P_SCFInfo ] 1
    print[ P_SCFIterInfo ] 1
    print[ P_OrbEn ] 0
    print[ P_Cartesian ] 0
end
*xyz 0 1
 C        0.9859610000    -0.1964760000     0.0829500000 
 C        2.4645390000    -0.0484320000     0.0038430000 
 C        3.1288190000     1.1051850000    -0.0192370000 
 C        4.6282440000     1.1512380000    -0.1006050000 
 N        5.2765640000    -0.1533470000    -0.1513520000 
 C        4.5592930000    -1.1935130000    -0.1240520000 
 N        3.1889560000    -1.2380020000    -0.0493740000 
 H        0.5054150000     0.7801100000     0.1203030000 
 H        0.6943390000    -0.7581510000     0.9768550000 
 H        0.5979890000    -0.7381240000    -0.7863510000 
 H        2.5735090000     2.0353020000     0.0217390000 
 H        5.0451720000     1.7025060000     0.7541630000 
 H        4.9502840000     1.7229010000    -0.9825550000 
 H        5.0389530000    -2.1718110000    -0.1617300000 
 H        2.7154730000    -2.1218870000    -0.0337990000 
*
