! RI PBE def2-SVP def2-SVP/J NBO PAL2
% maxcore 2000
% output
    # printlevel mini
    print[ P_Basis ] 0
    print[ P_SCFInfo ] 1
    print[ P_SCFIterInfo ] 1
    print[ P_OrbEn ] 0
    print[ P_Cartesian ] 0
end
*xyz 0 1
 C        0.8404600000     0.0266710000     0.1110220000 
 C        2.3609600000     0.0521230000     0.0232930000 
 C        2.9825060000     0.1319700000     1.4115920000 
 C        2.9217500000    -1.1489290000    -0.8037230000 
 N        3.6029660000    -0.6104760000    -1.9792120000 
 C        3.4904870000     0.6554400000    -1.8953880000 
 N        2.8198440000     1.1500220000    -0.8218140000 
 H        0.5047590000    -0.8465990000     0.6769710000 
 H        0.4009830000    -0.0210710000    -0.8873510000 
 H        0.4560110000     0.9185590000     0.6152050000 
 H        2.6983480000    -0.7390900000     2.0083290000 
 H        2.6477900000     1.0259600000     1.9465840000 
 H        4.0717390000     0.1600930000     1.3414570000 
 H        2.1168520000    -1.8222190000    -1.1169860000 
 H        3.6226110000    -1.7443940000    -0.2090660000 
 H        3.9010760000     1.3401480000    -2.6326160000 
 H        2.6574570000     2.1217020000    -0.6356970000 
*
