! RI PBE def2-SVP def2-SVP/J NBO PAL2
% maxcore 2000
% output
    # printlevel mini
    print[ P_Basis ] 0
    print[ P_SCFInfo ] 1
    print[ P_SCFIterInfo ] 1
    print[ P_OrbEn ] 0
    print[ P_Cartesian ] 0
end
*xyz 0 1
 C        0.8355490000     0.1437200000    -0.3459580000 
 C        2.2937060000     0.0061400000     0.0022090000 
 C        2.6431080000     0.1459020000     1.4634440000 
 C        2.1061410000    -0.9724560000     2.3395230000 
 N        2.5076240000    -0.7622570000     3.7221550000 
 C        3.1432100000    -0.8396310000    -0.8625560000 
 N        3.2684490000     0.6182320000    -0.9011810000 
 H        0.2273780000    -0.6107160000     0.1591860000 
 H        0.6774660000     0.0290980000    -1.4214830000 
 H        0.4591760000     1.1273590000    -0.0481930000 
 H        2.2728480000     1.1047120000     1.8426250000 
 H        3.7347290000     0.1810420000     1.5438800000 
 H        2.4327360000    -1.9392910000     1.9226420000 
 H        1.0118520000    -0.9740100000     2.3109130000 
 H        3.5174440000    -0.7859930000     3.8016050000 
 H        2.1484370000    -1.4983830000     4.3166370000 
 H        2.6743630000    -1.3454160000    -1.7014190000 
 H        3.9986900000    -1.3590330000    -0.4418480000 
 H        2.7993060000     0.9829710000    -1.7239720000 
*
