! RI PBE def2-SVP def2-SVP/J NBO PAL2
% maxcore 2000
% output
    # printlevel mini
    print[ P_Basis ] 0
    print[ P_SCFInfo ] 1
    print[ P_SCFIterInfo ] 1
    print[ P_OrbEn ] 0
    print[ P_Cartesian ] 0
end
*xyz 0 1
 C        1.0089260000    -0.0953320000    -0.1512680000 
 C        2.5338320000    -0.0417730000    -0.0954080000 
 C        3.0268210000     1.2126670000     0.5706280000 
 C        3.4196390000     1.1788800000     1.8397810000 
 N        3.4375160000    -0.0311080000     2.5287970000 
 C        3.3916360000    -1.1806610000     1.7663270000 
 N        3.0329650000    -1.2533710000     0.5562980000 
 H        0.6147980000     0.7525530000    -0.7179820000 
 H        0.5894990000    -0.0583470000     0.8569390000 
 H        0.6825200000    -1.0214380000    -0.6300210000 
 H        2.8980180000    -0.0685450000    -1.1296060000 
 H        3.0497060000     2.1450930000     0.0200330000 
 H        3.7615900000     2.0462130000     2.3900780000 
 H        3.9337570000    -0.0752980000     3.4015340000 
 H        3.7159670000    -2.0819220000     2.2860590000 
*
