! RI PBE def2-SVP def2-SVP/J NBO PAL2
% maxcore 2000
% output
    # printlevel mini
    print[ P_Basis ] 0
    print[ P_SCFInfo ] 1
    print[ P_SCFIterInfo ] 1
    print[ P_OrbEn ] 0
    print[ P_Cartesian ] 0
end
*xyz 0 1
 C        0.9979270000    -0.0070970000     0.3683040000 
 C        2.4366240000     0.1773180000    -0.0918870000 
 C        3.1442040000     1.3470450000     0.6238350000 
 C        4.4380110000     0.7611110000     1.1986780000 
 N        5.5415910000     0.9368040000     0.2656090000 
 C        4.0245720000    -0.6937700000     1.4221170000 
 N        3.2991950000    -0.9756010000     0.1953190000 
 H        0.4011800000     0.8837860000     0.1527990000 
 H        0.9533370000    -0.1886710000     1.4465670000 
 H        0.5255850000    -0.8520450000    -0.1414580000 
 H        2.4285380000     0.3434420000    -1.1753680000 
 H        2.5118450000     1.7194690000     1.4342060000 
 H        3.3609350000     2.1839290000    -0.0404770000 
 H        4.7110410000     1.2504700000     2.1368070000 
 H        5.3630710000     0.3706950000    -0.5581900000 
 H        6.3992170000     0.5839850000     0.6744540000 
 H        3.4113620000    -0.7741150000     2.3366290000 
 H        4.8837520000    -1.3615510000     1.5330170000 
 H        2.7863230000    -1.8461140000     0.2208400000 
*
