! RI PBE def2-SVP def2-SVP/J NBO PAL2
% maxcore 2000
% output
    # printlevel mini
    print[ P_Basis ] 0
    print[ P_SCFInfo ] 1
    print[ P_SCFIterInfo ] 1
    print[ P_OrbEn ] 0
    print[ P_Cartesian ] 0
end
*xyz 0 1
 C        0.8772670000    -0.0438460000    -0.1849610000 
 C        2.3618810000    -0.1277430000     0.1412340000 
 C        3.1430840000     1.0988090000    -0.3234680000 
 C        3.4136370000     1.0346700000    -1.8211980000 
 N        4.0789900000    -0.1857490000    -2.2273590000 
 C        3.8178290000    -1.2145160000    -1.5272650000 
 N        2.9810130000    -1.2978500000    -0.4546470000 
 H        0.4172990000     0.7951590000     0.3441110000 
 H        0.3598160000    -0.9585930000     0.1141010000 
 H        0.7186820000     0.0933920000    -1.2568250000 
 H        2.4675020000    -0.2150750000     1.2288920000 
 H        4.1019750000     1.1301330000     0.2028080000 
 H        2.5947660000     2.0075010000    -0.0618590000 
 H        4.0320720000     1.8841960000    -2.1239380000 
 H        2.4734360000     1.1343450000    -2.3811510000 
 H        4.2918690000    -2.1612990000    -1.7895050000 
 H        2.9271720000    -2.1739530000     0.0321490000 
*
