! RI PBE def2-SVP def2-SVP/J NBO PAL2
% maxcore 2000
% output
    # printlevel mini
    print[ P_Basis ] 0
    print[ P_SCFInfo ] 1
    print[ P_SCFIterInfo ] 1
    print[ P_OrbEn ] 0
    print[ P_Cartesian ] 0
end
*xyz 0 1
 C        0.9614680000    -0.1153710000     0.0217750000 
 C        2.4451490000    -0.0538050000     0.0282100000 
 C        3.2912220000     1.0320540000     0.0326130000 
 C        4.6283340000     0.5479850000     0.0380440000 
 N        5.7616740000     1.3299370000     0.0434350000 
 C        4.5566200000    -0.8253580000     0.0367860000 
 N        3.2189820000    -1.1670700000     0.0307740000 
 H        0.5490570000     0.8936680000     0.0206420000 
 H        0.5675350000    -0.6322120000     0.9031640000 
 H        0.5751530000    -0.6310810000    -0.8636400000 
 H        2.9815470000     2.0668630000     0.0319890000 
 H        5.6898070000     2.3259870000     0.0441680000 
 H        6.6733480000     0.9212870000     0.0474440000 
 H        5.3311100000    -1.5745290000     0.0395970000 
 H        2.8712850000    -2.1073330000     0.0286100000 
*
