! RI PBE def2-SVP def2-SVP/J NBO PAL2
% maxcore 2000
% output
    # printlevel mini
    print[ P_Basis ] 0
    print[ P_SCFInfo ] 1
    print[ P_SCFIterInfo ] 1
    print[ P_OrbEn ] 0
    print[ P_Cartesian ] 0
end
*xyz 0 1
 C        0.9793040000     0.0129680000    -0.0388100000 
 C        2.4698870000     0.0232930000    -0.0428250000 
 C        3.2886210000     1.1308480000    -0.0418070000 
 N        2.9781170000     2.4705740000    -0.0371220000 
 N        4.5848940000     0.7081810000    -0.0465810000 
 C        4.6263320000    -0.6700940000    -0.0507490000 
 C        3.3365550000    -1.1104680000    -0.0485140000 
 H        0.5638370000     1.0244020000    -0.0352580000 
 H        0.5753910000    -0.4967160000     0.8419010000 
 H        0.5706690000    -0.4924270000    -0.9198080000 
 H        2.0217480000     2.7588800000    -0.0324490000 
 H        3.6840610000     3.1774100000    -0.0360190000 
 H        5.3880510000     1.3083960000    -0.0470360000 
 H        5.5643140000    -1.1993260000    -0.0548980000 
 H        3.0261310000    -2.1447300000    -0.0507150000 
*
