! RI PBE def2-SVP def2-SVP/J NBO PAL2
% maxcore 2000
% output
    # printlevel mini
    print[ P_Basis ] 0
    print[ P_SCFInfo ] 1
    print[ P_SCFIterInfo ] 1
    print[ P_OrbEn ] 0
    print[ P_Cartesian ] 0
end
*xyz 0 1
 C        0.9790410000     0.1286910000     0.0024630000 
 N        2.4147890000     0.0597500000    -0.0016770000 
 N        3.1339370000     1.1879820000    -0.0070230000 
 C        4.3942590000     0.7881150000    -0.0097590000 
 C        4.4905290000    -0.6110040000    -0.0061620000 
 C        3.1846900000    -1.0535500000    -0.0009500000 
 C        2.6151010000    -2.4241860000     0.0046040000 
 H        0.7071030000     1.1814440000     0.0006510000 
 H        0.5640760000    -0.3483980000     0.8939080000 
 H        0.5587210000    -0.3528350000    -0.8840780000 
 H        5.1866760000     1.5218240000    -0.0142120000 
 H        5.3791930000    -1.2214810000    -0.0071760000 
 H        3.4195690000    -3.1591620000     0.0040560000 
 H        1.9911090000    -2.6108500000    -0.8748600000 
 H        1.9967160000    -2.6060310000     0.8890240000 
*
