! RI PBE def2-SVP def2-SVP/J NBO PAL2
% maxcore 2000
% output
    # printlevel mini
    print[ P_Basis ] 0
    print[ P_SCFInfo ] 1
    print[ P_SCFIterInfo ] 1
    print[ P_OrbEn ] 0
    print[ P_Cartesian ] 0
end
*xyz 0 1
 C        1.0283890000     0.0839680000     0.0902800000 
 C        2.5232050000     0.0458060000     0.0350380000 
 C        3.2762760000    -0.6854850000    -1.0309730000 
 C        2.5980830000    -1.3829870000    -2.0894110000 
 N        2.0537680000    -1.9665690000    -2.9179080000 
 N        3.1912030000     0.7648600000    -1.0182160000 
 C        4.4158670000     1.4576600000    -0.6832390000 
 H        0.6418620000    -0.7636000000     0.6608650000 
 H        0.6037650000     0.0495760000    -0.9135170000 
 H        0.6918800000     1.0035120000     0.5748700000 
 H        3.0327620000     0.0333280000     0.9996160000 
 H        4.2191820000    -1.1419070000    -0.7367680000 
 H        5.0279710000     1.5657410000    -1.5803870000 
 H        5.0076310000     0.9389530000     0.0866350000 
 H        4.1675650000     2.4550540000    -0.3154950000 
*
