! RI PBE def2-SVP def2-SVP/J NBO PAL2
% maxcore 2000
% output
    # printlevel mini
    print[ P_Basis ] 0
    print[ P_SCFInfo ] 1
    print[ P_SCFIterInfo ] 1
    print[ P_OrbEn ] 0
    print[ P_Cartesian ] 0
end
*xyz 0 1
 C        0.9545990000     0.0519520000     0.0627240000 
 C        2.4468780000    -0.0996220000     0.0246470000 
 C        3.2001410000    -0.9431010000    -0.9386920000 
 C        2.5813620000    -1.7414690000    -2.0466470000 
 N        3.4830870000    -1.7502940000    -3.1901360000 
 N        3.1815320000     0.5036940000    -1.0697150000 
 C        4.4006140000     1.1990920000    -0.7254960000 
 H        0.4974490000    -0.7387900000     0.6638270000 
 H        0.5252610000     0.0185220000    -0.9382050000 
 H        0.6815850000     1.0118530000     0.5095660000 
 H        2.9253680000    -0.0173810000     1.0020140000 
 H        4.1314430000    -1.3678190000    -0.5626360000 
 H        1.5848920000    -1.3399860000    -2.2736850000 
 H        2.4452560000    -2.7733960000    -1.7057510000 
 H        3.5858090000    -0.8020230000    -3.5335760000 
 H        3.0941320000    -2.2977190000    -3.9476460000 
 H        5.0675570000     1.2214560000    -1.5906010000 
 H        4.9413580000     0.7289010000     0.1111240000 
 H        4.1679760000     2.2301390000    -0.4477050000 
*
