! RI PBE def2-SVP def2-SVP/J NBO PAL2
% maxcore 2000
% output
    # printlevel mini
    print[ P_Basis ] 0
    print[ P_SCFInfo ] 1
    print[ P_SCFIterInfo ] 1
    print[ P_OrbEn ] 0
    print[ P_Cartesian ] 0
end
*xyz 0 1
 C        1.1392610000     0.0455960000     0.2793710000 
 C        2.5691640000    -0.0109610000    -0.2091230000 
 C        2.9317500000    -1.2415250000    -1.0395430000 
 C        3.9430930000    -0.6362450000    -1.9645500000 
 N        3.9000490000     0.6372020000    -1.9874290000 
 N        2.9094150000     1.0744910000    -1.1374770000 
 C        3.1855560000     2.3633890000    -0.5602890000 
 H        0.9305320000    -0.7942200000     0.9463250000 
 H        0.4468140000     0.0004220000    -0.5640590000 
 H        0.9409190000     0.9638810000     0.8364080000 
 H        3.2552650000     0.0462990000     0.6565540000 
 H        2.0645070000    -1.6033770000    -1.6095720000 
 H        3.3082830000    -2.0747890000    -0.4449830000 
 H        4.6085280000    -1.1713750000    -2.6300520000 
 H        3.4711890000     3.0510870000    -1.3552290000 
 H        3.9985630000     2.3262380000     0.1827820000 
 H        2.2872130000     2.7479670000    -0.0745130000 
*
