! RI PBE def2-SVP def2-SVP/J NBO PAL2
% maxcore 2000
% output
    # printlevel mini
    print[ P_Basis ] 0
    print[ P_SCFInfo ] 1
    print[ P_SCFIterInfo ] 1
    print[ P_OrbEn ] 0
    print[ P_Cartesian ] 0
end
*xyz 0 1
 C        0.9466490000     0.0440860000     0.0955090000 
 C        2.4391190000     0.0744710000     0.0621730000 
 C        3.1747440000     1.2384510000    -0.0053450000 
 C        4.5591940000     1.1309610000    -0.0302360000 
 N        5.2091410000    -0.0223400000     0.0071130000 
 N        4.5168570000    -1.1439790000     0.0718190000 
 C        3.1954570000    -1.0996460000     0.0981670000 
 H        0.5281340000     1.0504220000     0.0597300000 
 H        0.5865660000    -0.4434720000     1.0051480000 
 H        0.5489290000    -0.5215630000    -0.7510570000 
 H        2.6952450000     2.2110520000    -0.0383120000 
 H        5.1894370000     2.0131940000    -0.0829680000 
 H        2.7073180000    -2.0695470000     0.1517510000 
*
