! RI PBE def2-SVP def2-SVP/J NBO PAL2
% maxcore 2000
% output
    # printlevel mini
    print[ P_Basis ] 0
    print[ P_SCFInfo ] 1
    print[ P_SCFIterInfo ] 1
    print[ P_OrbEn ] 0
    print[ P_Cartesian ] 0
end
*xyz 0 1
 C        0.9240100000    -0.0115440000    -0.1663350000 
 C        2.4136720000    -0.0032080000    -0.1066430000 
 C        3.2296220000     1.0986990000    -0.1796430000 
 N        4.5253800000     0.6814720000    -0.0861760000 
 N        5.6022770000     1.5548890000    -0.1286650000 
 C        4.5633320000    -0.6762910000     0.0461600000 
 C        3.2690930000    -1.1289760000     0.0370600000 
 H        0.5305100000     0.9998490000    -0.2838880000 
 H        0.4867210000    -0.4328820000     0.7435280000 
 H        0.5580130000    -0.6085990000    -1.0066480000 
 H        3.0074930000     2.1478930000    -0.2897770000 
 H        6.1374250000     1.4763660000     0.7280670000 
 H        6.2014290000     1.3177280000    -0.9105500000 
 H        5.5029630000    -1.1989050000     0.1347920000 
 H        2.9633620000    -2.1610900000     0.1244070000 
*
