! RI PBE def2-SVP def2-SVP/J NBO PAL2
% maxcore 2000
% output
    # printlevel mini
    print[ P_Basis ] 0
    print[ P_SCFInfo ] 1
    print[ P_SCFIterInfo ] 1
    print[ P_OrbEn ] 0
    print[ P_Cartesian ] 0
end
*xyz 0 1
 C        0.9277180000    -0.0153700000    -0.0661280000 
 C        2.2572590000     0.0900210000    -0.0640210000 
 C        3.0149450000     1.3823410000    -0.0758010000 
 C        4.4910730000     1.1567050000    -0.0693220000 
 N        5.1018350000     0.0448490000    -0.0560270000 
 N        4.3604270000    -1.1571550000    -0.0456310000 
 C        3.0856100000    -1.1061080000    -0.0494760000 
 H        0.2793840000     0.8538800000    -0.0767960000 
 H        0.4507330000    -0.9892420000    -0.0570800000 
 H        2.7544610000     2.0064820000     0.7877480000 
 H        2.7592610000     1.9877660000    -0.9539940000 
 H        5.1300380000     2.0395700000    -0.0767190000 
 H        2.5759360000    -2.0695510000    -0.0408430000 
*
