! RI PBE def2-SVP def2-SVP/J NBO PAL2
% maxcore 2000
% output
    # printlevel mini
    print[ P_Basis ] 0
    print[ P_SCFInfo ] 1
    print[ P_SCFIterInfo ] 1
    print[ P_OrbEn ] 0
    print[ P_Cartesian ] 0
end
*xyz 0 1
 C        0.9122430000    -0.1260900000    -0.3202050000 
 C        2.2221850000    -0.0207930000    -0.0880220000 
 C        2.9233060000     1.2812650000     0.1772250000 
 C        4.3536380000     1.1780760000    -0.3192850000 
 N        4.9704330000     0.0180990000     0.2883180000 
 N        4.3542460000    -1.1756810000     0.1573610000 
 C        3.0844300000    -1.1926350000    -0.0333860000 
 H        0.2699610000     0.7464220000    -0.3611830000 
 H        0.4465170000    -1.0938100000    -0.4715850000 
 H        2.9361370000     1.4702780000     1.2564160000 
 H        2.4024290000     2.1139670000    -0.2994380000 
 H        4.9364380000     2.0612020000    -0.0502230000 
 H        4.3502790000     1.0870870000    -1.4173610000 
 H        5.9582330000    -0.0846370000     0.1203360000 
 H        2.6350350000    -2.1782510000    -0.1149680000 
*
