! RI PBE def2-SVP def2-SVP/J NBO PAL2
% maxcore 2000
% output
    # printlevel mini
    print[ P_Basis ] 0
    print[ P_SCFInfo ] 1
    print[ P_SCFIterInfo ] 1
    print[ P_OrbEn ] 0
    print[ P_Cartesian ] 0
end
*xyz 0 1
 C        0.9419900000     0.0470990000     0.0104870000 
 C        2.4318380000     0.1406450000     0.0053570000 
 C        3.0954220000     1.2976960000    -0.0078250000 
 C        4.5905130000     1.3664520000    -0.0127580000 
 N        5.1488870000     0.0233990000    -0.0010050000 
 N        4.4839410000    -1.1230170000     0.0119970000 
 C        3.2005810000    -1.0969100000     0.0152780000 
 H        0.4779590000     1.0341940000     0.0021640000 
 H        0.5892720000    -0.4918950000     0.8954220000 
 H        0.5843020000    -0.5090460000    -0.8617500000 
 H        2.5627560000     2.2435800000    -0.0155630000 
 H        4.9492200000     1.9370260000     0.8596990000 
 H        4.9442240000     1.9196040000    -0.8983830000 
 H        6.1446810000    -0.0911010000    -0.0026890000 
 H        2.7032040000    -2.0602260000     0.0260600000 
*
