! RI PBE def2-SVP def2-SVP/J NBO PAL2
% maxcore 2000
% output
    # printlevel mini
    print[ P_Basis ] 0
    print[ P_SCFInfo ] 1
    print[ P_SCFIterInfo ] 1
    print[ P_OrbEn ] 0
    print[ P_Cartesian ] 0
end
*xyz 0 1
 C        0.9800460000     0.0852450000     0.0714560000 
 C        2.5106560000     0.0346890000     0.0426390000 
 C        3.0273120000     0.2020310000    -1.3772630000 
 C        3.0387730000    -1.2280010000     0.7400810000 
 N        3.1337960000    -0.7908470000     2.1307450000 
 N        3.3890130000     0.5648570000     2.1464420000 
 C        3.0560690000     1.0526910000     1.0186070000 
 H        0.5580520000    -0.6816350000    -0.5847350000 
 H        0.6166350000     1.0575400000    -0.2708330000 
 H        0.6065920000    -0.0824770000     1.0838720000 
 H        2.6677980000    -0.6065240000    -2.0202090000 
 H        4.1192410000     0.2006280000    -1.4064470000 
 H        2.6780190000     1.1438080000    -1.8088680000 
 H        4.0252620000    -1.4965360000     0.3339690000 
 H        2.3687840000    -2.0841610000     0.6379920000 
 H        3.7982570000    -1.2814460000     2.7103470000 
 H        3.0986950000     2.1226380000     0.8490140000 
*
