! RI PBE def2-SVP def2-SVP/J NBO PAL2
% maxcore 2000
% output
    # printlevel mini
    print[ P_Basis ] 0
    print[ P_SCFInfo ] 1
    print[ P_SCFIterInfo ] 1
    print[ P_OrbEn ] 0
    print[ P_Cartesian ] 0
end
*xyz 0 1
 C        0.8362430000    -0.0354730000    -0.0794660000 
 C        2.3471830000    -0.0486050000     0.1385600000 
 C        3.0203390000     1.2505930000    -0.3071910000 
 C        3.4000260000     1.1451940000    -1.7725030000 
 N        4.2890590000     0.0166900000    -1.9287280000 
 N        3.8610050000    -1.1900170000    -1.4760280000 
 C        2.9859180000    -1.2232000000    -0.5492160000 
 H        0.3642030000     0.7324160000     0.5394270000 
 H        0.3889120000    -0.9989670000     0.1775140000 
 H        0.5933060000     0.1711830000    -1.1249400000 
 H        2.5199400000    -0.1814500000     1.2143320000 
 H        3.9306790000     1.4210420000     0.2733650000 
 H        2.3575420000     2.1041040000    -0.1415610000 
 H        3.9168860000     2.0433830000    -2.1174980000 
 H        2.4898000000     1.0226110000    -2.3827410000 
 H        4.6889230000    -0.0910740000    -2.8468200000 
 H        2.7081440000    -2.2202400000    -0.2133260000 
*
