! RI PBE def2-SVP def2-SVP/J NBO PAL2
% maxcore 2000
% output
    # printlevel mini
    print[ P_Basis ] 0
    print[ P_SCFInfo ] 1
    print[ P_SCFIterInfo ] 1
    print[ P_OrbEn ] 0
    print[ P_Cartesian ] 0
end
*xyz 0 1
 C        0.9178390000    -0.1252870000     0.1763560000 
 C        2.3865180000    -0.2287930000    -0.1023060000 
 C        2.9274190000    -0.3987610000    -1.4710740000 
 N        3.0220780000     0.8789770000    -0.7886490000 
 C        4.3223150000     1.2576900000    -0.3335930000 
 C        4.9878720000     2.4016510000    -1.0257380000 
 C        4.4499800000     2.5710870000     0.3662540000 
 H        0.4795020000    -1.1148190000     0.3318870000 
 H        0.4063130000     0.3518210000    -0.6615570000 
 H        0.7305860000     0.4727080000     1.0720870000 
 H        2.9788060000    -0.6926480000     0.6865190000 
 H        2.2525300000    -0.4309760000    -2.3208370000 
 H        3.8400810000    -0.9784070000    -1.5866240000 
 H        4.9671600000     0.4466600000     0.0134770000 
 H        4.4323920000     2.8650940000    -1.8309800000 
 H        6.0609320000     2.3650220000    -1.1660430000 
 H        3.5400710000     3.1466120000     0.4786630000 
 H        5.1514990000     2.6511700000     1.1871580000 
*
