! RI PBE def2-SVP def2-SVP/J NBO PAL2
% maxcore 2000
% output
    # printlevel mini
    print[ P_Basis ] 0
    print[ P_SCFInfo ] 1
    print[ P_SCFIterInfo ] 1
    print[ P_OrbEn ] 0
    print[ P_Cartesian ] 0
end
*xyz 0 1
 C        0.8613020000     0.2713670000    -0.2145870000 
 C        2.3104900000    -0.0268010000     0.0617540000 
 C        3.0727710000    -0.8191550000    -0.9252500000 
 N        3.3189910000     0.6161900000    -0.7763190000 
 C        2.6585450000    -0.1125000000     1.5157150000 
 C        4.0613260000     0.0942210000     1.9846470000 
 C        3.0191140000     1.1325250000     2.2692360000 
 H        0.6565150000     0.2848950000    -1.2883610000 
 H        0.5823740000     1.2429020000     0.2035540000 
 H        0.2138310000    -0.4831110000     0.2405750000 
 H        2.5540130000    -1.1674180000    -1.8134780000 
 H        3.8852170000    -1.4549870000    -0.5889750000 
 H        2.8708470000     1.1286810000    -1.5282170000 
 H        2.0711860000    -0.8471280000     2.0592140000 
 H        4.7949450000     0.3403460000     1.2270530000 
 H        4.4193170000    -0.5158960000     2.8045510000 
 H        3.0809230000     2.0511090000     1.6976610000 
 H        2.6593030000     1.2473800000     3.2841370000 
*
