! RI PBE def2-SVP def2-SVP/J NBO PAL2
% maxcore 2000
% output
    # printlevel mini
    print[ P_Basis ] 0
    print[ P_SCFInfo ] 1
    print[ P_SCFIterInfo ] 1
    print[ P_OrbEn ] 0
    print[ P_Cartesian ] 0
end
*xyz 0 1
 C        0.9871200000     0.5465670000    -0.3601220000 
 C        2.4601270000     0.4286840000    -0.1158550000 
 C        3.2837590000    -0.6557740000    -0.6987010000 
 N        3.3476980000     0.6931740000    -1.2312280000 
 C        4.5641450000     1.4212300000    -0.9187800000 
 C        4.3494390000     2.8615440000    -0.9170650000 
 C        4.1793320000     4.0490030000    -0.9000650000 
 H        0.4225770000    -0.0205500000     0.3847090000 
 H        0.7351550000     0.1647640000    -1.3509650000 
 H        0.6683820000     1.5904200000    -0.3080040000 
 H        2.8025270000     0.7952490000     0.8520040000 
 H        2.8294020000    -1.3949700000    -1.3505840000 
 H        4.1314930000    -1.0141940000    -0.1188210000 
 H        5.3172300000     1.1700710000    -1.6734150000 
 H        4.9833560000     1.1275190000     0.0595350000 
 H        4.0263490000     5.1021720000    -0.8935440000 
*
