! RI PBE def2-SVP def2-SVP/J NBO PAL2
% maxcore 2000
% output
    # printlevel mini
    print[ P_Basis ] 0
    print[ P_SCFInfo ] 1
    print[ P_SCFIterInfo ] 1
    print[ P_OrbEn ] 0
    print[ P_Cartesian ] 0
end
*xyz 0 1
 C        0.9586960000     1.0639810000    -0.7288400000 
 C        2.0554930000     0.1177960000    -0.3455490000 
 C        2.6018030000    -0.8911300000    -1.2813900000 
 N        3.3562480000     0.3025070000    -0.9575140000 
 C        4.5094630000     0.1147230000    -0.1047910000 
 C        4.9113610000     1.4194120000     0.5546540000 
 N        6.0815650000     1.2155070000     1.3933080000 
 H       -0.0228190000     0.6238080000    -0.5331530000 
 H        1.0229230000     1.3079800000    -1.7906570000 
 H        1.0303750000     1.9969740000    -0.1631820000 
 H        2.0697180000    -0.1775630000     0.7046290000 
 H        2.2234820000    -0.9505470000    -2.2972200000 
 H        2.9446180000    -1.8344520000    -0.8619220000 
 H        5.3430150000    -0.2488060000    -0.7124890000 
 H        4.3209930000    -0.6488970000     0.6733470000 
 H        4.0406550000     1.8311410000     1.0897530000 
 H        5.1657880000     2.1371100000    -0.2296090000 
 H        5.8478040000     0.6497670000     2.2003070000 
 H        6.4287090000     2.0982890000     1.7444070000 
*
