! RI PBE def2-SVP def2-SVP/J NBO PAL2
% maxcore 2000
% output
    # printlevel mini
    print[ P_Basis ] 0
    print[ P_SCFInfo ] 1
    print[ P_SCFIterInfo ] 1
    print[ P_OrbEn ] 0
    print[ P_Cartesian ] 0
end
*xyz 0 1
 C        1.5699820000     0.6137750000     0.3681560000 
 C        2.9286620000     0.0281550000     0.1167570000 
 C        3.1193400000    -0.9289450000    -1.0078650000 
 N        3.7025010000     0.3823350000    -1.0575170000 
 C        3.3304590000     1.3452160000    -1.9982710000 
 C        3.4428330000     2.7529520000    -1.5039830000 
 N        3.0231850000     1.1122830000    -3.2083730000 
 H        0.9777610000    -0.0689780000     0.9825940000 
 H        1.0325180000     0.7826050000    -0.5679790000 
 H        1.6353480000     1.5644870000     0.9026080000 
 H        3.5381120000    -0.1172400000     1.0059580000 
 H        2.2489430000    -1.1176560000    -1.6338290000 
 H        3.8117160000    -1.7596850000    -0.9187210000 
 H        2.7680980000     2.9300040000    -0.6630660000 
 H        3.2010810000     3.4405040000    -2.3111780000 
 H        4.4587810000     2.9431470000    -1.1499570000 
 H        3.0089790000     0.1088610000    -3.3916330000 
*
