! RI PBE def2-SVP def2-SVP/J NBO PAL2
% maxcore 2000
% output
    # printlevel mini
    print[ P_Basis ] 0
    print[ P_SCFInfo ] 1
    print[ P_SCFIterInfo ] 1
    print[ P_OrbEn ] 0
    print[ P_Cartesian ] 0
end
*xyz 0 1
 C        0.8968420000     0.6048850000    -0.2264970000 
 C        2.3696850000     0.5019050000     0.0222730000 
 C        3.2110520000    -0.5598860000    -0.5753030000 
 N        3.2576980000     0.7985240000    -1.0886070000 
 C        4.4609950000     1.5325350000    -0.7660570000 
 C        4.2123510000     2.9720060000    -0.7580170000 
 N        4.0235030000     4.1048740000    -0.7315980000 
 H        0.3398350000     0.0155670000     0.5062130000 
 H        0.6531360000     0.2380710000    -1.2248520000 
 H        0.5632900000     1.6426360000    -0.1547080000 
 H        2.7036690000     0.8577660000     0.9969080000 
 H        2.7703870000    -1.2924340000    -1.2432270000 
 H        4.0627120000    -0.9157600000    -0.0001470000 
 H        5.2244480000     1.3203310000    -1.5210010000 
 H        4.8866970000     1.2617810000     0.2148090000 
*
