! RI PBE def2-SVP def2-SVP/J NBO PAL2
% maxcore 2000
% output
    # printlevel mini
    print[ P_Basis ] 0
    print[ P_SCFInfo ] 1
    print[ P_SCFIterInfo ] 1
    print[ P_OrbEn ] 0
    print[ P_Cartesian ] 0
end
*xyz 0 1
 C        0.9136350000     0.0803560000    -0.0122130000 
 C        2.4271110000     0.1233970000     0.0654670000 
 C        3.0786180000    -0.9606200000     0.9790080000 
 N        3.8793400000    -0.1685410000     1.9400440000 
 C        4.4678690000     0.8481130000     0.9993250000 
 C        3.0251360000     1.3333200000     0.7909060000 
 C        2.8874220000     0.9121000000     2.2638020000 
 H        0.5713430000    -0.8609030000    -0.4511240000 
 H        0.5223700000     0.8926870000    -0.6306720000 
 H        0.4547500000     0.1635670000     0.9768440000 
 H        2.8341430000     0.0654220000    -0.9497580000 
 H        3.7298080000    -1.6479130000     0.4358990000 
 H        2.3337250000    -1.5484960000     1.5208470000 
 H        5.0128370000     0.4303950000     0.1480250000 
 H        5.0992560000     1.5460270000     1.5514410000 
 H        2.7689570000     2.3265270000     0.4176440000 
 H        1.9240830000     0.5600880000     2.6401250000 
 H        3.3272170000     1.6234740000     2.9645170000 
*
