! RI PBE def2-SVP def2-SVP/J NBO PAL2
% maxcore 2000
% output
    # printlevel mini
    print[ P_Basis ] 0
    print[ P_SCFInfo ] 1
    print[ P_SCFIterInfo ] 1
    print[ P_OrbEn ] 0
    print[ P_Cartesian ] 0
end
*xyz 0 1
 C        1.0031320000    -0.0628490000     0.0861570000 
 C        2.3256500000    -0.0231940000     0.0639320000 
 C        3.3444400000    -1.1561090000     0.0964320000 
 N        4.6270460000    -0.4131560000     0.0456760000 
 C        4.2902300000     0.6048980000    -1.0079110000 
 C        3.2518660000     1.1504490000     0.0001430000 
 C        4.3207570000     0.6907420000     1.0190910000 
 H        0.4666220000    -1.0046640000     0.1344120000 
 H        0.4062800000     0.8420050000     0.0570030000 
 H        3.2661830000    -1.8277820000    -0.7613900000 
 H        3.2928340000    -1.7530640000     1.0097180000 
 H        3.9398010000     0.1953380000    -1.9578520000 
 H        5.1375180000     1.2743490000    -1.1642180000 
 H        2.8234280000     2.1513300000    -0.0358250000 
 H        3.9995020000     0.3633920000     2.0103320000 
 H        5.1715090000     1.3699250000     1.0927200000 
*
