! RI PBE def2-SVP def2-SVP/J NBO PAL2
% maxcore 2000
% output
    # printlevel mini
    print[ P_Basis ] 0
    print[ P_SCFInfo ] 1
    print[ P_SCFIterInfo ] 1
    print[ P_OrbEn ] 0
    print[ P_Cartesian ] 0
end
*xyz 0 1
 C        0.8471390000     0.0762270000    -0.1734030000 
 C        2.3406200000     0.0927420000     0.0359930000 
 C        2.7030970000    -0.0361740000     1.4945000000 
 N        3.1935600000    -0.6720540000    -0.8841580000 
 C        3.2441510000     0.7959850000    -0.9213430000 
 C        2.6922800000     1.5123950000    -2.1283070000 
 C        4.5472750000     1.3990820000    -0.4593480000 
 H        0.4273350000    -0.8456680000     0.2408580000 
 H        0.5594260000     0.1271730000    -1.2229780000 
 H        0.3715320000     0.9130580000     0.3464910000 
 H        2.2180300000    -0.9199230000     1.9195060000 
 H        2.3619610000     0.8357090000     2.0605670000 
 H        3.7748940000    -0.1490760000     1.6415230000 
 H        2.6388860000    -1.0181540000    -1.6618540000 
 H        1.7706440000     1.0711420000    -2.5062690000 
 H        3.4275440000     1.4889660000    -2.9386040000 
 H        2.4926910000     2.5634850000    -1.8999380000 
 H        5.0126840000     0.8125940000     0.3296660000 
 H        4.3982360000     2.4200040000    -0.0953500000 
 H        5.2515960000     1.4429890000    -1.2953720000 
*
