! RI PBE def2-SVP def2-SVP/J NBO PAL2
% maxcore 2000
% output
    # printlevel mini
    print[ P_Basis ] 0
    print[ P_SCFInfo ] 1
    print[ P_SCFIterInfo ] 1
    print[ P_OrbEn ] 0
    print[ P_Cartesian ] 0
end
*xyz 0 1
 C        0.9833210000     0.1269990000     0.0813900000 
 C        2.4845780000     0.0970290000     0.0638940000 
 C        3.2466270000    -0.6759240000    -0.9993310000 
 N        2.6249720000    -1.3789850000    -2.0797240000 
 C        3.3107400000     0.8250810000    -0.9698660000 
 C        2.6300710000     1.6334410000    -2.0448480000 
 C        4.6071800000     1.4390940000    -0.5056880000 
 H        0.5925550000    -0.6334860000     0.7633590000 
 H        0.5567890000    -0.0768000000    -0.9027350000 
 H        0.5995180000     1.0954750000     0.4142570000 
 H        2.9341330000     0.0691480000     1.0531820000 
 H        4.1476780000    -1.1728200000    -0.6483380000 
 H        2.1212630000    -0.7675390000    -2.7050100000 
 H        1.9870750000    -2.0934490000    -1.7536200000 
 H        1.6501630000     1.2459510000    -2.3271560000 
 H        3.2479120000     1.6793980000    -2.9472150000 
 H        2.4757230000     2.6608560000    -1.7018160000 
 H        5.0842020000     0.8252930000     0.2616570000 
 H        4.4398040000     2.4344370000    -0.0815020000 
 H        5.3125750000     1.5436020000    -1.3362700000 
*
