! RI PBE def2-SVP def2-SVP/J NBO PAL2
% maxcore 2000
% output
    # printlevel mini
    print[ P_Basis ] 0
    print[ P_SCFInfo ] 1
    print[ P_SCFIterInfo ] 1
    print[ P_OrbEn ] 0
    print[ P_Cartesian ] 0
end
*xyz 0 1
 C        0.9954850000    -0.1259150000     0.1833160000 
 C        2.4704590000    -0.0318400000    -0.0712140000 
 C        3.1117730000    -0.6405930000    -1.2981540000 
 N        2.3933780000    -1.3211700000    -2.3338980000 
 C        3.0155920000     0.8424150000    -1.1839230000 
 C        4.1809880000     1.7225610000    -0.9662880000 
 C        5.4576010000     1.3869070000    -1.1004030000 
 H        0.7494340000    -1.0307840000     0.7470810000 
 H        0.4284970000    -0.1580650000    -0.7501440000 
 H        0.6339710000     0.7301790000     0.7591170000 
 H        3.0934220000    -0.0591350000     0.8184310000 
 H        4.0975250000    -1.0629390000    -1.1316990000 
 H        1.6634600000    -0.7466210000    -2.7304790000 
 H        1.9698380000    -2.1761790000    -1.9954440000 
 H        2.2315880000     1.2925560000    -1.7917180000 
 H        3.9394600000     2.7369870000    -0.6522690000 
 H        5.7586310000     0.3962440000    -1.4239290000 
 H        6.2485970000     2.0984010000    -0.8950720000 
*
