! RI PBE def2-SVP def2-SVP/J NBO PAL2
% maxcore 2000
% output
    # printlevel mini
    print[ P_Basis ] 0
    print[ P_SCFInfo ] 1
    print[ P_SCFIterInfo ] 1
    print[ P_OrbEn ] 0
    print[ P_Cartesian ] 0
end
*xyz 0 1
 C        1.0535620000     0.0579730000    -0.0541680000 
 C        2.5510550000    -0.0167970000    -0.0631180000 
 C        3.3092340000    -0.8041660000    -1.0969660000 
 N        2.7124490000    -1.5234180000    -2.1794030000 
 C        3.3388700000     0.6995290000    -1.1463140000 
 C        4.5300550000     1.4256700000    -0.8342130000 
 C        5.5302730000     2.0326820000    -0.5581980000 
 H        0.6248380000    -0.7601010000     0.5317360000 
 H        0.6377990000    -0.0085760000    -1.0622980000 
 H        0.7074740000     0.9975930000     0.3831840000 
 H        3.0191040000     0.0146210000     0.9156220000 
 H        4.2290830000    -1.2605500000    -0.7466920000 
 H        2.0358170000    -0.9654820000    -2.6812450000 
 H        2.2446460000    -2.3599690000    -1.8521950000 
 H        2.7316240000     1.1417940000    -1.9327440000 
 H        6.4173060000     2.5689870000    -0.3185870000 
*
