! RI PBE def2-SVP def2-SVP/J NBO PAL2
% maxcore 2000
% output
    # printlevel mini
    print[ P_Basis ] 0
    print[ P_SCFInfo ] 1
    print[ P_SCFIterInfo ] 1
    print[ P_OrbEn ] 0
    print[ P_Cartesian ] 0
end
*xyz 0 1
 C        0.8420120000    -0.0709970000    -0.0249800000 
 C        2.3484440000    -0.1102690000     0.0398570000 
 C        3.1028720000     0.9085300000     0.9047310000 
 N        4.0581500000    -0.1476130000     1.2699560000 
 C        3.0933860000    -1.2002660000     0.8649680000 
 C        2.2906540000    -1.7464820000     2.0351680000 
 C        3.7249720000    -2.3239980000     0.0712900000 
 H        0.5031300000     0.8285520000    -0.5467090000 
 H        0.3892000000    -0.0640710000     0.9692600000 
 H        0.4430380000    -0.9317230000    -0.5693530000 
 H        2.7637610000    -0.1055780000    -0.9720170000 
 H        2.4837140000     1.2708400000     1.7376270000 
 H        3.5468180000     1.7722490000     0.4018760000 
 H        4.3281740000    -0.1709100000     2.2464070000 
 H        1.8422640000    -0.9451630000     2.6278680000 
 H        2.9440310000    -2.3278820000     2.6930430000 
 H        1.4870580000    -2.4081580000     1.6999780000 
 H        4.3350180000    -1.9188400000    -0.7378360000 
 H        2.9601160000    -2.9790310000    -0.3572570000 
 H        4.3710180000    -2.9357890000     0.7082430000 
*
