! RI PBE def2-SVP def2-SVP/J NBO PAL2
% maxcore 2000
% output
    # printlevel mini
    print[ P_Basis ] 0
    print[ P_SCFInfo ] 1
    print[ P_SCFIterInfo ] 1
    print[ P_OrbEn ] 0
    print[ P_Cartesian ] 0
end
*xyz 0 1
 C        1.0536730000    -0.1927360000     0.1069260000 
 C        2.5467170000    -0.0009180000     0.0515950000 
 C        3.2070510000     1.1503960000     0.8272770000 
 N        4.3134390000     0.2412140000     1.1591630000 
 C        3.4565210000    -0.9291250000     0.8965460000 
 C        4.1161830000    -2.0860760000     0.2402280000 
 C        3.9353420000    -3.3529460000     0.5893190000 
 H        0.5323210000     0.6015960000    -0.4344270000 
 H        0.6921660000    -0.1866830000     1.1389990000 
 H        0.7632820000    -1.1453830000    -0.3445800000 
 H        2.9006030000     0.0001830000    -0.9831700000 
 H        2.5955720000     1.4497690000     1.6906900000 
 H        3.4974310000     2.0464560000     0.2722200000 
 H        4.6879470000     0.3090340000     2.0969630000 
 H        2.9035610000    -1.2719890000     1.7855050000 
 H        4.7766840000    -1.8339230000    -0.5871530000 
 H        3.2912900000    -3.6218690000     1.4215300000 
 H        4.4191980000    -4.1661000000     0.0606660000 
*
