! RI PBE def2-SVP def2-SVP/J NBO PAL2
% maxcore 2000
% output
    # printlevel mini
    print[ P_Basis ] 0
    print[ P_SCFInfo ] 1
    print[ P_SCFIterInfo ] 1
    print[ P_OrbEn ] 0
    print[ P_Cartesian ] 0
end
*xyz 0 1
 C        0.8680070000    -0.0901190000     0.0343650000 
 C        2.3750760000    -0.1053650000     0.0019450000 
 C        3.1569330000     0.9606030000     0.7900860000 
 N        4.1156260000    -0.0798060000     1.1979800000 
 C        3.1424810000    -1.1307350000     0.8593830000 
 C        3.7301070000    -2.3542990000     0.1973650000 
 N        2.6695480000    -3.2550260000    -0.2304280000 
 H        0.4683570000     0.7736100000    -0.5050780000 
 H        0.4965230000    -0.0398120000     1.0623130000 
 H        0.4642640000    -0.9935760000    -0.4282810000 
 H        2.7355150000    -0.1588220000    -1.0292450000 
 H        2.5551860000     1.3639550000     1.6166010000 
 H        3.5960510000     1.7942680000     0.2349730000 
 H        4.4135340000    -0.0476070000     2.1643260000 
 H        2.5221810000    -1.4389950000     1.7189230000 
 H        4.4627150000    -2.8109870000     0.8834850000 
 H        4.2889260000    -2.0268850000    -0.6839640000 
 H        2.2054890000    -3.6644480000     0.5717040000 
 H        3.0464520000    -4.0211560000    -0.7729620000 
*
