! RI PBE def2-SVP def2-SVP/J NBO PAL2
% maxcore 2000
% output
    # printlevel mini
    print[ P_Basis ] 0
    print[ P_SCFInfo ] 1
    print[ P_SCFIterInfo ] 1
    print[ P_OrbEn ] 0
    print[ P_Cartesian ] 0
end
*xyz 0 1
 C        0.9292490000    -0.0918290000     0.1142870000 
 C        2.4451250000    -0.0913900000     0.0414180000 
 C        3.2130560000     0.9570540000     0.8928450000 
 N        4.1521710000    -0.0917060000     1.3001620000 
 C        3.2133030000    -1.1404870000     0.8924790000 
 C        2.8889390000    -0.0912130000    -1.3444750000 
 N        3.2130250000    -0.0919230000    -2.4482910000 
 H        0.6069110000    -0.0918140000     1.1571410000 
 H        0.5159430000    -0.9751940000    -0.3769020000 
 H        0.5152200000     0.7911620000    -0.3769850000 
 H        2.5648620000     1.3347840000     1.6942800000 
 H        3.6617710000     1.7984330000     0.3610730000 
 H        4.4264690000    -0.0918570000     2.2730120000 
 H        2.5649130000    -1.5184340000     1.6936690000 
 H        3.6620430000    -1.9815780000     0.3602990000 
*
