! RI PBE def2-SVP def2-SVP/J NBO PAL2
% maxcore 2000
% output
    # printlevel mini
    print[ P_Basis ] 0
    print[ P_SCFInfo ] 1
    print[ P_SCFIterInfo ] 1
    print[ P_OrbEn ] 0
    print[ P_Cartesian ] 0
end
*xyz 0 1
 C        1.0095250000    -0.0972970000     0.2358540000 
 C        2.4632240000    -0.0812270000    -0.1673050000 
 C        3.3764520000     0.9823710000     0.4855450000 
 N        4.3023660000    -0.0879750000     0.8401930000 
 C        3.3901350000    -1.1522770000     0.4529360000 
 C        5.2284000000    -0.1135730000     1.8335260000 
 N        5.7310180000    -1.1249150000     2.4193000000 
 H        0.4872080000     0.7885060000    -0.1351020000 
 H        0.9042230000    -0.1178250000     1.3241040000 
 H        0.4984720000    -0.9758940000    -0.1664390000 
 H        2.5592100000    -0.0638660000    -1.2547380000 
 H        2.9171270000     1.4719360000     1.3533820000 
 H        3.7920030000     1.7457620000    -0.1778490000 
 H        2.9468500000    -1.6723600000     1.3134930000 
 H        3.8133670000    -1.8946680000    -0.2296800000 
 H        5.5749180000     0.8843500000     2.1166490000 
 H        5.3279020000    -1.9943380000     2.0676190000 
*
