! RI PBE def2-SVP def2-SVP/J NBO PAL2
% maxcore 2000
% output
    # printlevel mini
    print[ P_Basis ] 0
    print[ P_SCFInfo ] 1
    print[ P_SCFIterInfo ] 1
    print[ P_OrbEn ] 0
    print[ P_Cartesian ] 0
end
*xyz 0 1
 C        1.0332550000    -0.1224700000     0.2555030000 
 C        2.4758020000    -0.0663710000    -0.1828350000 
 C        3.3339680000     1.1285240000     0.2882020000 
 N        4.3898870000     0.1792960000     0.6155550000 
 C        3.4912430000    -0.9738780000     0.5411460000 
 N        5.2666730000     0.4330110000     1.5866040000 
 C        5.7712610000    -0.5382420000     2.2383090000 
 H        0.4462440000     0.6690140000    -0.2180970000 
 H        0.9459810000    -0.0007390000     1.3385650000 
 H        0.5748370000    -1.0782560000    -0.0120770000 
 H        2.5544550000    -0.1929940000    -1.2646820000 
 H        2.9178840000     1.6182170000     1.1776420000 
 H        3.6086670000     1.8863930000    -0.4493010000 
 H        3.1478500000    -1.2916640000     1.5377880000 
 H        3.8811850000    -1.8417980000     0.0030730000 
 H        6.5111620000    -0.3042030000     2.9940730000 
 H        5.5160540000    -1.5845430000     2.0585420000 
*
