! RI PBE def2-SVP def2-SVP/J NBO PAL2
% maxcore 2000
% output
    # printlevel mini
    print[ P_Basis ] 0
    print[ P_SCFInfo ] 1
    print[ P_SCFIterInfo ] 1
    print[ P_OrbEn ] 0
    print[ P_Cartesian ] 0
end
*xyz 0 1
 C        0.8601170000     0.0696170000     0.5202260000 
 C        2.1460100000    -0.1912620000    -0.2310630000 
 C        3.2440030000     0.8687470000    -0.0200240000 
 N        3.8610740000    -0.0060860000     0.9697410000 
 C        5.2859780000    -0.0225650000     1.1200510000 
 C        3.1195600000    -1.1742080000     0.4611920000 
 C        3.8604480000    -2.0911140000    -0.4933950000 
 H        0.3071270000     0.9044070000     0.0806870000 
 H        1.0697190000     0.3153090000     1.5644970000 
 H        0.2071700000    -0.8076150000     0.5031770000 
 H        1.9420930000    -0.4346490000    -1.2763690000 
 H        2.9289000000     1.8467160000     0.3611470000 
 H        3.8617320000     1.0266730000    -0.9187470000 
 H        5.6208110000     0.9476080000     1.4978410000 
 H        5.8358730000    -0.2247120000     0.1845380000 
 H        5.5775180000    -0.7774690000     1.8554850000 
 H        2.6757930000    -1.7702910000     1.2697040000 
 H        4.2775640000    -1.5434260000    -1.3430290000 
 H        3.1742090000    -2.8457010000    -0.8872990000 
 H        4.6790040000    -2.6168780000     0.0052310000 
*
