! RI PBE def2-SVP def2-SVP/J NBO PAL2
% maxcore 2000
% output
    # printlevel mini
    print[ P_Basis ] 0
    print[ P_SCFInfo ] 1
    print[ P_SCFIterInfo ] 1
    print[ P_OrbEn ] 0
    print[ P_Cartesian ] 0
end
*xyz 0 1
 C        1.1225370000     0.0159190000    -0.1382050000 
 C        2.6093590000     0.0431800000     0.1399290000 
 C        3.0579420000     1.1042540000     1.1306380000 
 N        4.4035470000     0.6808680000     1.5061610000 
 C        4.5159950000    -0.7673200000     1.3330280000 
 C        3.1651080000    -1.2324310000     0.7886800000 
 N        3.2904290000    -2.4236080000    -0.0222250000 
 H        0.7769520000     0.9513120000    -0.5856370000 
 H        0.5553190000    -0.1420930000     0.7846140000 
 H        0.8643140000    -0.7895970000    -0.8317260000 
 H        3.1564030000     0.1988290000    -0.8003420000 
 H        2.3552710000     1.1229500000     1.9804440000 
 H        3.0679150000     2.1082300000     0.6944210000 
 H        4.6542490000     0.9786540000     2.4357940000 
 H        4.7753030000    -1.2873130000     2.2598790000 
 H        5.3017390000    -1.0095880000     0.6042200000 
 H        2.5080740000    -1.4826620000     1.6324680000 
 H        3.8493630000    -2.2326990000    -0.8465310000 
 H        2.3852920000    -2.7486650000    -0.3381280000 
*
