! RI PBE def2-SVP def2-SVP/J NBO PAL2
% maxcore 2000
% output
    # printlevel mini
    print[ P_Basis ] 0
    print[ P_SCFInfo ] 1
    print[ P_SCFIterInfo ] 1
    print[ P_OrbEn ] 0
    print[ P_Cartesian ] 0
end
*xyz 0 1
 C        0.7794590000    -0.2319350000     0.2329700000 
 C        2.2817320000    -0.1282920000     0.0885880000 
 C        2.6807660000     0.1172100000    -1.3562780000 
 N        2.9091050000     0.8195800000     1.0398390000 
 C        4.0085210000    -0.1192270000     1.3091860000 
 C        3.1307930000    -1.2529700000     0.7747650000 
 N        3.7793490000    -2.3159930000     0.0655700000 
 H        0.2853950000     0.6789520000    -0.1187810000 
 H        0.5094490000    -0.3772330000     1.2805340000 
 H        0.3871450000    -1.0701400000    -0.3517170000 
 H        2.2245730000     1.0427540000    -1.7200570000 
 H        3.7646460000     0.2144020000    -1.4684890000 
 H        2.3446360000    -0.6936010000    -2.0091970000 
 H        3.1845690000     1.7084220000     0.6396720000 
 H        4.3296620000    -0.1713500000     2.3523700000 
 H        4.8966250000     0.0218920000     0.6771770000 
 H        2.5432610000    -1.6894710000     1.5864420000 
 H        4.2592740000    -1.9825810000    -0.7606150000 
 H        3.1275410000    -3.0354380000    -0.2182000000 
*
