! RI PBE def2-SVP def2-SVP/J NBO PAL2
% maxcore 2000
% output
    # printlevel mini
    print[ P_Basis ] 0
    print[ P_SCFInfo ] 1
    print[ P_SCFIterInfo ] 1
    print[ P_OrbEn ] 0
    print[ P_Cartesian ] 0
end
*xyz 0 1
 C        0.8878690000    -0.0850270000    -0.1154360000 
 C        2.3768520000    -0.0286220000     0.0990380000 
 C        2.7642310000     0.0624330000     1.5628450000 
 N        4.1386850000    -0.3381980000     1.8400890000 
 C        3.2506270000    -0.7866980000    -0.8697710000 
 C        3.2029080000     0.7042210000    -0.9340130000 
 N        4.3807350000     1.4622480000    -0.6301800000 
 H        0.4556560000    -0.9989490000     0.3061400000 
 H        0.6444010000    -0.0635620000    -1.1802180000 
 H        0.3863580000     0.7674630000     0.3552630000 
 H        2.0287970000    -0.5167840000     2.1426190000 
 H        2.6543180000     1.1048700000     1.8872470000 
 H        4.2372370000    -1.3419580000     1.7490280000 
 H        4.3838170000    -0.1049150000     2.7940110000 
 H        2.7679480000    -1.3655140000    -1.6489420000 
 H        4.1760830000    -1.2131250000    -0.5006580000 
 H        2.6392910000     1.1244610000    -1.7628570000 
 H        4.8616630000     1.0267760000     0.1515600000 
 H        4.1267260000     2.3988890000    -0.3378650000 
*
