! RI PBE def2-SVP def2-SVP/J NBO PAL2
% maxcore 2000
% output
    # printlevel mini
    print[ P_Basis ] 0
    print[ P_SCFInfo ] 1
    print[ P_SCFIterInfo ] 1
    print[ P_OrbEn ] 0
    print[ P_Cartesian ] 0
end
*xyz 0 1
 C        0.8477340000    -0.0567620000     0.1062270000 
 C        2.1713300000    -0.0354650000    -0.0604930000 
 C        2.9507780000     1.2371720000    -0.2744980000 
 N        4.2598510000     1.2290000000     0.3584450000 
 C        5.0595130000     0.0992930000    -0.0791490000 
 C        4.3120070000    -1.1987660000    -0.1385600000 
 C        2.9783580000    -1.2477540000    -0.0882400000 
 H        0.2636270000     0.8570260000     0.1241940000 
 H        0.3087110000    -0.9911130000     0.2227590000 
 H        2.3835970000     2.1013470000     0.0787170000 
 H        3.1060350000     1.3780250000    -1.3520670000 
 H        4.1342330000     1.1688560000     1.3624580000 
 H        5.9204710000     0.0032930000     0.5897500000 
 H        5.4820410000     0.3241180000    -1.0698670000 
 H        4.8918330000    -2.1142970000    -0.2162290000 
 H        2.4603900000    -2.2025650000    -0.0825470000 
*
