! RI PBE def2-SVP def2-SVP/J NBO PAL2
% maxcore 2000
% output
    # printlevel mini
    print[ P_Basis ] 0
    print[ P_SCFInfo ] 1
    print[ P_SCFIterInfo ] 1
    print[ P_OrbEn ] 0
    print[ P_Cartesian ] 0
end
*xyz 0 1
 C        0.8826680000     0.0177420000    -0.2456210000 
 C        2.3875880000    -0.0414260000     0.0098920000 
 C        3.1427810000     0.0449550000    -1.3198430000 
 N        2.7287490000    -1.2613840000     0.7636650000 
 C        3.6044220000    -0.9406880000     1.8870520000 
 C        3.5133250000     0.5477680000     1.9800120000 
 C        2.8408830000     1.0412550000     0.9519650000 
 H        0.5724050000    -0.8223090000    -0.8728220000 
 H        0.6013120000     0.9439850000    -0.7553340000 
 H        0.3394560000    -0.0450320000     0.6982180000 
 H        2.8561650000    -0.7837200000    -1.9753460000 
 H        4.2221110000     0.0042080000    -1.1553940000 
 H        2.9138100000     0.9749910000    -1.8468780000 
 H        3.1191670000    -1.9728380000     0.1639440000 
 H        4.6486370000    -1.2578150000     1.7344510000 
 H        3.2647750000    -1.4292920000     2.8101390000 
 H        3.9524730000     1.1176900000     2.7894120000 
 H        2.6325630000     2.0886890000     0.7685790000 
*
