! RI PBE def2-SVP def2-SVP/J NBO PAL2
% maxcore 2000
% output
    # printlevel mini
    print[ P_Basis ] 0
    print[ P_SCFInfo ] 1
    print[ P_SCFIterInfo ] 1
    print[ P_OrbEn ] 0
    print[ P_Cartesian ] 0
end
*xyz 0 1
 C        1.0131670000    -0.0507170000     0.0898650000 
 C        2.5231670000    -0.0467590000    -0.0359830000 
 C        2.9018930000    -0.0459320000    -1.5119740000 
 N        4.3390850000    -0.0634340000    -1.7398010000 
 C        3.2536870000     1.0394880000     0.8004270000 
 C        4.1795590000    -0.0418380000     1.3896370000 
 C        3.2693020000    -1.1287510000     0.7881100000 
 H        0.5721710000     0.8319160000    -0.3847540000 
 H        0.7079360000    -0.0521540000     1.1392340000 
 H        0.5796460000    -0.9371910000    -0.3845090000 
 H        2.3948170000     0.8068980000    -1.9941320000 
 H        2.4859020000    -0.9532780000    -1.9645820000 
 H        4.7465870000     0.8393070000    -1.5300080000 
 H        4.5401000000    -0.2535250000    -2.7125670000 
 H        2.5932580000     1.4858200000     1.5474320000 
 H        3.7279190000     1.8560580000     0.2482690000 
 H        4.2904620000    -0.0415320000     2.4751810000 
 H        5.1708190000    -0.0428230000     0.9364930000 
 H        2.6185000000    -1.6021850000     1.5269970000 
 H        3.7718310000    -1.9016850000     0.2050630000 
*
