! RI PBE def2-SVP def2-SVP/J NBO PAL2
% maxcore 2000
% output
    # printlevel mini
    print[ P_Basis ] 0
    print[ P_SCFInfo ] 1
    print[ P_SCFIterInfo ] 1
    print[ P_OrbEn ] 0
    print[ P_Cartesian ] 0
end
*xyz 0 1
 C        0.9902930000    -0.1279210000     0.3929350000 
 C        2.4705760000    -0.0618470000     0.0413270000 
 C        2.7950860000     1.1850990000    -0.7814130000 
 N        4.1206880000     1.1802580000    -1.3715120000 
 C        4.3129740000     0.0473330000    -2.2596000000 
 C        3.7217660000    -1.2370530000    -1.7601990000 
 C        2.9131550000    -1.2859900000    -0.7071770000 
 H        0.6762470000     0.7636490000     0.9425830000 
 H        0.7677740000    -0.9993410000     1.0140130000 
 H        0.3805040000    -0.1986890000    -0.5123270000 
 H        3.0351530000    -0.0095700000     0.9849120000 
 H        2.6807410000     2.0852630000    -0.1700090000 
 H        2.0672060000     1.2646620000    -1.5987240000 
 H        4.8135530000     1.1442000000    -0.6333220000 
 H        5.3863790000    -0.0782540000    -2.4350010000 
 H        3.8826540000     0.2866600000    -3.2431120000 
 H        3.9734790000    -2.1471480000    -2.2989230000 
 H        2.5232710000    -2.2434230000    -0.3685730000 
*
