! RI PBE def2-SVP def2-SVP/J NBO PAL2
% maxcore 2000
% output
    # printlevel mini
    print[ P_Basis ] 0
    print[ P_SCFInfo ] 1
    print[ P_SCFIterInfo ] 1
    print[ P_OrbEn ] 0
    print[ P_Cartesian ] 0
end
*xyz 0 1
 C        1.0194970000    -0.0372290000    -0.0337030000 
 C        2.5100310000    -0.0018340000    -0.1144270000 
 C        3.2212270000     1.1980130000    -0.1234870000 
 N        4.5436320000     1.2476690000    -0.1946750000 
 C        5.1734880000     0.0821700000    -0.2581930000 
 C        4.4778870000    -1.1179480000    -0.2499740000 
 N        3.1553880000    -1.1650630000    -0.1787280000 
 H        0.5963170000     0.9666320000     0.0148320000 
 H        0.7025070000    -0.5955530000     0.8500630000 
 H        0.6064250000    -0.5511950000    -0.9046050000 
 H        2.6961180000     2.1482660000    -0.0710630000 
 H        6.2576620000     0.1024100000    -0.3170530000 
 H        5.0038310000    -2.0673180000    -0.3024050000 
*
