! RI PBE def2-SVP def2-SVP/J NBO PAL2
% maxcore 2000
% output
    # printlevel mini
    print[ P_Basis ] 0
    print[ P_SCFInfo ] 1
    print[ P_SCFIterInfo ] 1
    print[ P_OrbEn ] 0
    print[ P_Cartesian ] 0
end
*xyz 0 1
 C        0.9715400000    -0.0318530000    -0.0430380000 
 N        2.4081400000    -0.1124260000    -0.0364820000 
 C        3.2777580000     0.9232390000    -0.0334730000 
 N        4.5236700000     0.5224910000    -0.0273920000 
 C        4.4735810000    -0.8450790000    -0.0264180000 
 C        5.7137020000    -1.6692110000    -0.0200130000 
 C        3.1652450000    -1.2550860000    -0.0321030000 
 H        0.6767020000     1.0170890000    -0.0452450000 
 H        0.5501200000    -0.5096610000     0.8441440000 
 H        0.5581560000    -0.5111400000    -0.9331970000 
 H        2.9412560000     1.9503720000    -0.0359010000 
 H        6.5805200000    -1.0084670000    -0.0162990000 
 H        5.7799540000    -2.3127540000    -0.9011710000 
 H        5.7715640000    -2.3116800000     0.8625170000 
 H        2.7132720000    -2.2342130000    -0.0333390000 
*
