! RI PBE def2-SVP def2-SVP/J NBO PAL2
% maxcore 2000
% output
    # printlevel mini
    print[ P_Basis ] 0
    print[ P_SCFInfo ] 1
    print[ P_SCFIterInfo ] 1
    print[ P_OrbEn ] 0
    print[ P_Cartesian ] 0
end
*xyz 0 1
 C        0.9317220000    -0.0498260000     0.1497360000 
 C        2.4471700000    -0.0804890000    -0.0399160000 
 C        2.9576770000    -1.4694710000    -0.4290600000 
 N        2.6676340000    -1.8532290000    -1.7991870000 
 C        3.1148910000    -0.8343250000    -2.7344890000 
 C        2.5961200000     0.5530780000    -2.3948240000 
 N        2.9558050000     0.8709230000    -1.0240730000 
 H        0.6276260000    -0.7242070000     0.9551280000 
 H        0.3950240000    -0.3497740000    -0.7539430000 
 H        0.5939730000     0.9560990000     0.4140500000 
 H        2.9107100000     0.1798950000     0.9190950000 
 H        2.5452820000    -2.2246380000     0.2458760000 
 H        4.0460250000    -1.4793450000    -0.3073940000 
 H        1.6742410000    -2.0156630000    -1.9157390000 
 H        2.8119890000    -1.1188440000    -3.7457300000 
 H        4.2104520000    -0.8166650000    -2.7099640000 
 H        1.5079040000     0.5829470000    -2.5831090000 
 H        3.0544830000     1.2968850000    -3.0539250000 
 H        2.6630620000     1.8098700000    -0.7875120000 
*
