! RI PBE def2-SVP def2-SVP/J NBO PAL2
% maxcore 2000
% output
    # printlevel mini
    print[ P_Basis ] 0
    print[ P_SCFInfo ] 1
    print[ P_SCFIterInfo ] 1
    print[ P_OrbEn ] 0
    print[ P_Cartesian ] 0
end
*xyz 0 1
 C        1.1094400000    -0.1592650000     0.3646520000 
 C        2.5671140000     0.0494590000    -0.0003280000 
 C        2.7238070000     0.2292880000    -1.5022890000 
 N        4.1178380000     0.3931110000    -1.8605140000 
 C        3.2795890000     1.0807310000     0.9040100000 
 C        3.8656890000    -0.1196740000     1.6591490000 
 N        3.4726430000    -0.9958530000     0.5420400000 
 H        0.4996240000     0.6913180000     0.0466540000 
 H        0.9889240000    -0.2723050000     1.4453100000 
 H        0.7107320000    -1.0564320000    -0.1196260000 
 H        2.1667480000     1.1232290000    -1.8065200000 
 H        2.2368910000    -0.6321750000    -1.9921800000 
 H        4.2350590000     0.4113750000    -2.8646060000 
 H        4.6333200000    -0.4009720000    -1.4958100000 
 H        2.6330450000     1.7544360000     1.4664020000 
 H        4.0315300000     1.6472530000     0.3566260000 
 H        3.3414830000    -0.3285370000     2.5991260000 
 H        4.9404910000    -0.1059450000     1.8577600000 
 H        3.0147330000    -1.8601410000     0.8054240000 
*
