! RI PBE def2-SVP def2-SVP/J NBO PAL2
% maxcore 2000
% output
    # printlevel mini
    print[ P_Basis ] 0
    print[ P_SCFInfo ] 1
    print[ P_SCFIterInfo ] 1
    print[ P_OrbEn ] 0
    print[ P_Cartesian ] 0
end
*xyz 0 1
 C        0.9176990000     0.0998440000    -0.3215920000 
 C        2.3242470000    -0.0386110000     0.2179200000 
 C        2.5972080000    -1.3638270000     0.9548520000 
 N        3.4758880000    -0.9291160000     2.0288510000 
 C        3.6683950000    -1.7654350000     3.1801610000 
 C        3.2759100000     0.4269260000     2.1351290000 
 N        2.6538770000     1.0103610000     1.1922760000 
 H        0.7020740000    -0.6760400000    -1.0613070000 
 H        0.7889680000     1.0737380000    -0.7965320000 
 H        0.1876630000     0.0182820000     0.4876220000 
 H        3.0331540000     0.0650970000    -0.6152080000 
 H        3.0664430000    -2.1249940000     0.3277340000 
 H        1.6675800000    -1.7859630000     1.3721580000 
 H        4.2062250000    -2.6756520000     2.9049100000 
 H        2.7164610000    -2.0592810000     3.6479050000 
 H        4.2677540000    -1.2347060000     3.9219570000 
 H        3.6844740000     0.9501780000     2.9964660000 
*
