! RI PBE def2-SVP def2-SVP/J NBO PAL2
% maxcore 2000
% output
    # printlevel mini
    print[ P_Basis ] 0
    print[ P_SCFInfo ] 1
    print[ P_SCFIterInfo ] 1
    print[ P_OrbEn ] 0
    print[ P_Cartesian ] 0
end
*xyz 0 1
 C        1.0218740000    -0.0540630000    -0.0586150000 
 C        2.5030140000     0.0055990000    -0.0524820000 
 C        3.3853970000     1.0469220000    -0.0503140000 
 N        4.6799580000     0.5964430000    -0.0442190000 
 C        4.6032490000    -0.7088640000    -0.0426130000 
 C        5.7493760000    -1.6509550000    -0.0364360000 
 N        3.3024350000    -1.1132180000    -0.0474480000 
 H        0.6150100000     0.9573100000    -0.0617830000 
 H        0.6267410000    -0.5670860000     0.8241570000 
 H        0.6341600000    -0.5696370000    -0.9431890000 
 H        3.1533570000     2.1015710000    -0.0528430000 
 H        6.6709880000    -1.0716970000    -0.0332560000 
 H        5.7507710000    -2.2967360000    -0.9196110000 
 H        5.7431820000    -2.2943810000     0.8484340000 
 H        2.9794080000    -2.0650100000    -0.0473920000 
*
