! RI PBE def2-SVP def2-SVP/J NBO PAL2
% maxcore 2000
% output
    # printlevel mini
    print[ P_Basis ] 0
    print[ P_SCFInfo ] 1
    print[ P_SCFIterInfo ] 1
    print[ P_OrbEn ] 0
    print[ P_Cartesian ] 0
end
*xyz 0 1
 C        0.9752320000    -0.0734700000     0.0109800000 
 N        2.4130750000    -0.1010570000     0.0158780000 
 C        3.2413360000     0.9760580000     0.0222080000 
 N        4.5002380000     0.6315990000     0.0256020000 
 C        4.4929600000    -0.7344070000     0.0212970000 
 C        3.2126940000    -1.2198610000     0.0151750000 
 C        2.6764000000    -2.6014280000     0.0088440000 
 H        0.6432670000     0.9641150000     0.0126860000 
 H        0.5682350000    -0.5685600000     0.8958420000 
 H        0.5744080000    -0.5636510000    -0.8794100000 
 H        2.8572990000     1.9865310000     0.0240250000 
 H        5.4087140000    -1.3071650000     0.0227620000 
 H        3.5036680000    -3.3112840000     0.0098010000 
 H        2.0657500000    -2.8063140000    -0.8766870000 
 H        2.0590130000    -2.8117850000     0.8883980000 
*
