! RI PBE def2-SVP def2-SVP/J NBO PAL2
% maxcore 2000
% output
    # printlevel mini
    print[ P_Basis ] 0
    print[ P_SCFInfo ] 1
    print[ P_SCFIterInfo ] 1
    print[ P_OrbEn ] 0
    print[ P_Cartesian ] 0
end
*xyz 0 1
 C        0.9350980000    -0.1505120000    -0.1189400000 
 C        2.4331270000    -0.0368290000    -0.0161860000 
 C        3.0911190000     1.0459100000     0.8919640000 
 N        2.3659350000     1.5232590000     2.0429060000 
 C        4.0900730000    -0.0634910000     1.2492900000 
 N        3.1170780000    -1.0554640000     0.7890420000 
 C        3.5974860000    -2.2428900000     0.1429010000 
 H        0.5208180000     0.6748920000    -0.7050880000 
 H        0.4733900000    -0.1417030000     0.8707660000 
 H        0.6482240000    -1.0821880000    -0.6137520000 
 H        2.8765570000     0.0303820000    -1.0265010000 
 H        3.5028620000     1.9023640000     0.3567360000 
 H        1.9789450000     0.7447050000     2.5635630000 
 H        1.5950830000     2.1210170000     1.7706140000 
 H        4.3843170000    -0.1434980000     2.2999170000 
 H        4.9944000000    -0.0232570000     0.6211350000 
 H        4.1447280000    -2.8633610000     0.8574550000 
 H        4.2705800000    -2.0232690000    -0.7064280000 
 H        2.7577910000    -2.8336660000    -0.2318140000 
*
