! RI PBE def2-SVP def2-SVP/J NBO PAL2
% maxcore 2000
% output
    # printlevel mini
    print[ P_Basis ] 0
    print[ P_SCFInfo ] 1
    print[ P_SCFIterInfo ] 1
    print[ P_OrbEn ] 0
    print[ P_Cartesian ] 0
end
*xyz 0 1
 C        0.9117850000     0.0419020000    -0.0491390000 
 C        2.4063950000     0.0638510000    -0.0471560000 
 C        3.1396600000     1.2425990000    -0.0445620000 
 N        4.4673340000     1.2744110000    -0.0427690000 
 C        5.0772280000     0.0979640000    -0.0435970000 
 N        4.4964550000    -1.0958390000    -0.0460210000 
 C        3.1704510000    -1.0983810000    -0.0477700000 
 H        0.5055500000     1.0545140000    -0.0483020000 
 H        0.5224030000    -0.4771730000     0.8302580000 
 H        0.5247020000    -0.4747980000    -0.9309460000 
 H        2.6309360000     2.2050680000    -0.0438920000 
 H        6.1638740000     0.1111120000    -0.0421460000 
 H        2.6881070000    -2.0745410000    -0.0497580000 
*
