! RI PBE def2-SVP def2-SVP/J NBO PAL2
% maxcore 2000
% output
    # printlevel mini
    print[ P_Basis ] 0
    print[ P_SCFInfo ] 1
    print[ P_SCFIterInfo ] 1
    print[ P_OrbEn ] 0
    print[ P_Cartesian ] 0
end
*xyz 0 1
 C        0.9108260000    -0.0688760000     0.0525380000 
 C        2.2373580000    -0.0613580000     0.0573280000 
 C        2.9783580000     1.2538560000     0.0641810000 
 N        4.4073090000     1.0806170000     0.0694100000 
 C        5.0144970000    -0.1356360000     0.0680620000 
 N        4.4706060000    -1.2808240000     0.0621850000 
 C        3.0308440000    -1.3510680000     0.0559950000 
 H        0.3321340000     0.8494220000     0.0534060000 
 H        0.3539500000    -0.9997610000     0.0475400000 
 H        2.6698970000     1.8296820000     0.9451230000 
 H        2.6769600000     1.8349170000    -0.8157740000 
 H        4.9862700000     1.8993150000     0.0743410000 
 H        6.1037920000    -0.0762340000     0.0727390000 
 H        2.7219070000    -1.9474270000     0.9228200000 
 H        2.7290940000    -1.9412330000    -0.8175840000 
*
