! RI PBE def2-SVP def2-SVP/J NBO PAL2
% maxcore 2000
% output
    # printlevel mini
    print[ P_Basis ] 0
    print[ P_SCFInfo ] 1
    print[ P_SCFIterInfo ] 1
    print[ P_OrbEn ] 0
    print[ P_Cartesian ] 0
end
*xyz 0 1
 C        0.9898760000    -0.0542010000     0.3071720000 
 C        2.2701480000    -0.0496570000    -0.0297130000 
 C        3.1148680000     1.1959280000    -0.1840390000 
 N        4.4059370000     0.6723090000    -0.5539760000 
 C        4.4950570000    -0.6881320000    -0.6521480000 
 N        5.4889020000    -1.4206180000    -0.9550620000 
 C        3.1320190000    -1.2458570000    -0.3221940000 
 H        0.4500390000     0.8667570000     0.4997270000 
 H        0.4334450000    -0.9794840000     0.4030720000 
 H        3.1568510000     1.7648850000     0.7528720000 
 H        2.7055110000     1.8592480000    -0.9558450000 
 H        5.1965900000     1.2658780000    -0.7303850000 
 H        6.3230370000    -0.8678090000    -1.1453010000 
 H        3.2102230000    -1.9255740000     0.5295930000 
 H        2.7622860000    -1.8340620000    -1.1653620000 
*
