! RI PBE def2-SVP def2-SVP/J NBO PAL2
% maxcore 2000
% output
    # printlevel mini
    print[ P_Basis ] 0
    print[ P_SCFInfo ] 1
    print[ P_SCFIterInfo ] 1
    print[ P_OrbEn ] 0
    print[ P_Cartesian ] 0
end
*xyz 0 1
 C        1.0242160000    -0.0813770000     0.1926420000 
 C        2.4959600000    -0.0789360000     0.0122530000 
 C        3.3120550000    -1.1256970000    -0.1179650000 
 N        4.6418590000    -0.7252030000    -0.2694770000 
 C        4.7552890000     0.6499440000    -0.2437820000 
 N        5.7848860000     1.3855420000    -0.3488460000 
 C        3.3406130000     1.1637940000    -0.0555110000 
 H        0.6294210000    -1.0990640000     0.2117310000 
 H        0.5194200000     0.4596420000    -0.6153710000 
 H        0.7331800000     0.4094170000     1.1279640000 
 H        3.0653850000    -2.1786780000    -0.1180520000 
 H        5.4188520000    -1.3494980000    -0.3827470000 
 H        6.6332490000     0.8349930000    -0.4687280000 
 H        3.0682000000     1.8215470000    -0.8872020000 
 H        3.2816160000     1.7713910000     0.8532820000 
*
