! RI PBE def2-SVP def2-SVP/J NBO PAL2
% maxcore 2000
% output
    # printlevel mini
    print[ P_Basis ] 0
    print[ P_SCFInfo ] 1
    print[ P_SCFIterInfo ] 1
    print[ P_OrbEn ] 0
    print[ P_Cartesian ] 0
end
*xyz 0 1
 C        0.8871130000    -0.1004010000     0.0255940000 
 C        2.3905510000    -0.0029400000    -0.1080720000 
 C        2.7854440000     0.0459480000    -1.5794090000 
 N        4.2073760000    -0.1543310000    -1.7964350000 
 C        3.0803050000     1.0951230000     0.7357030000 
 N        4.0985380000     0.1171560000     1.1444460000 
 C        3.2286470000    -0.9978960000     0.7311260000 
 H        0.3910620000     0.7299950000    -0.4867790000 
 H        0.5804820000    -0.0772370000     1.0739110000 
 H        0.5148810000    -1.0303670000    -0.4138160000 
 H        2.4110160000     1.0048270000    -1.9761480000 
 H        2.2373170000    -0.7435420000    -2.1099410000 
 H        4.7540690000     0.2802740000    -1.0611740000 
 H        4.5007570000     0.2219950000    -2.6866800000 
 H        2.4349010000     1.4497910000     1.5501700000 
 H        3.4733750000     1.9660050000     0.1984320000 
 H        4.3642590000     0.1343370000     2.1198550000 
 H        2.6366440000    -1.4320000000     1.5473370000 
 H        3.7444430000    -1.7930280000     0.1881700000 
*
