! RI PBE def2-SVP def2-SVP/J NBO PAL2
% maxcore 2000
% output
    # printlevel mini
    print[ P_Basis ] 0
    print[ P_SCFInfo ] 1
    print[ P_SCFIterInfo ] 1
    print[ P_OrbEn ] 0
    print[ P_Cartesian ] 0
end
*xyz 0 1
 C        0.9255360000     0.0947270000    -0.3304590000 
 C        2.3435340000     0.0698940000     0.2229850000 
 C        3.1338260000     1.3061070000    -0.1962770000 
 N        3.4700590000     1.1982920000    -1.5974300000 
 C        3.5916400000    -0.0166410000    -2.1989420000 
 N        3.4479410000    -1.1591170000    -1.6600820000 
 C        3.1115860000    -1.1677720000    -0.2479270000 
 H        0.3820870000     0.9801680000     0.0106140000 
 H        0.3685990000    -0.7872540000    -0.0057860000 
 H        0.9280720000     0.0986240000    -1.4225660000 
 H        2.2958810000     0.0571230000     1.3169560000 
 H        4.0409540000     1.3946210000     0.4148730000 
 H        2.5429060000     2.2126810000    -0.0373410000 
 H        3.5747790000     2.0256950000    -2.1537610000 
 H        3.8331480000     0.0366990000    -3.2614240000 
 H        4.0353190000    -1.2743740000     0.3358860000 
 H        2.5206330000    -2.0664030000    -0.0446980000 
*
