! RI PBE def2-SVP def2-SVP/J NBO PAL2
% maxcore 2000
% output
    # printlevel mini
    print[ P_Basis ] 0
    print[ P_SCFInfo ] 1
    print[ P_SCFIterInfo ] 1
    print[ P_OrbEn ] 0
    print[ P_Cartesian ] 0
end
*xyz 0 1
 C        1.0668410000    -0.0227690000    -0.1233450000 
 C        2.5744280000    -0.0750250000     0.0069340000 
 C        3.1715670000     1.0672210000     0.8336670000 
 N        4.4375630000     0.5121260000     1.2563710000 
 C        4.4313960000    -0.8611740000     1.3202010000 
 N        5.3077710000    -1.6568880000     1.7824490000 
 C        3.1246290000    -1.3126990000     0.7152260000 
 H        0.7386330000     0.9040980000    -0.6015350000 
 H        0.5876710000    -0.0821570000     0.8583180000 
 H        0.6947540000    -0.8547430000    -0.7257380000 
 H        3.0251960000    -0.0243820000    -0.9905380000 
 H        2.5168670000     1.3071520000     1.6852370000 
 H        3.3093800000     1.9796970000     0.2475130000 
 H        5.0782370000     1.0411220000     1.8233250000 
 H        6.1047940000    -1.1543390000     2.1707950000 
 H        2.4613010000    -1.6175400000     1.5331770000 
 H        3.2661610000    -2.1782110000     0.0690420000 
*
