! RI PBE def2-SVP def2-SVP/J NBO PAL2
% maxcore 2000
% output
    # printlevel mini
    print[ P_Basis ] 0
    print[ P_SCFInfo ] 1
    print[ P_SCFIterInfo ] 1
    print[ P_OrbEn ] 0
    print[ P_Cartesian ] 0
end
*xyz 0 1
 C        0.8909130000    -0.0195790000    -0.0157070000 
 C        2.3793050000    -0.0411030000    -0.0120010000 
 C        3.2459560000     1.0258810000    -0.0060820000 
 N        4.4920560000     0.5115530000    -0.0047050000 
 N        4.5051580000    -0.8209120000    -0.0093120000 
 C        3.2281510000    -1.1748000000    -0.0137900000 
 C        2.8332440000    -2.6080010000    -0.0197870000 
 H        0.5105710000     1.0032960000    -0.0131380000 
 H        0.4784740000    -0.5278530000     0.8610140000 
 H        0.4829420000    -0.5217740000    -0.8980030000 
 H        3.0655160000     2.0900300000    -0.0028350000 
 H        5.3630220000     1.0101260000    -0.0007550000 
 H        3.7228620000    -3.2375610000    -0.0196900000 
 H        2.2358270000    -2.8542920000    -0.9024690000 
 H        2.2313030000    -2.8604110000     0.8580800000 
*
