! RI PBE def2-SVP def2-SVP/J NBO PAL2
% maxcore 2000
% output
    # printlevel mini
    print[ P_Basis ] 0
    print[ P_SCFInfo ] 1
    print[ P_SCFIterInfo ] 1
    print[ P_OrbEn ] 0
    print[ P_Cartesian ] 0
end
*xyz 0 1
 C        0.9701500000     0.0749090000    -0.1050640000 
 C        2.2829140000     0.1056400000     0.1213880000 
 C        3.1727620000     1.2603940000     0.0183360000 
 N        4.3764820000     1.0333810000     0.3784170000 
 N        4.4807550000    -0.2900740000     0.8795890000 
 C        4.4123140000    -1.2438090000    -0.2194810000 
 C        3.1925070000    -0.9581660000     0.5873850000 
 H        0.4363010000     0.9710220000    -0.3980300000 
 H        0.3939580000    -0.8368320000    -0.0055670000 
 H        2.8892450000     2.2364950000    -0.3605760000 
 H        4.9340290000    -2.1798800000    -0.0556700000 
 H        4.4728100000    -0.8324810000    -1.2212020000 
 H        2.8521950000    -1.6944870000     1.3049660000 
*
