! RI PBE def2-SVP def2-SVP/J NBO PAL2
% maxcore 2000
% output
    # printlevel mini
    print[ P_Basis ] 0
    print[ P_SCFInfo ] 1
    print[ P_SCFIterInfo ] 1
    print[ P_OrbEn ] 0
    print[ P_Cartesian ] 0
end
*xyz 0 1
 C        1.0156260000     0.0157690000    -0.3934690000 
 C        2.4680060000    -0.1314310000     0.0187530000 
 C        2.7798090000    -1.3605560000     0.8679400000 
 N        3.9250160000    -0.8982340000     1.6487160000 
 N        3.7992630000     0.4708960000     1.8276360000 
 C        3.0154990000     0.9398540000     0.9370810000 
 C        2.7694180000     2.3940520000     0.7808260000 
 H        0.6960420000    -0.8289950000    -1.0084590000 
 H        0.8575480000     0.9246200000    -0.9784900000 
 H        0.3625790000     0.0594030000     0.4824190000 
 H        3.0959050000    -0.1417510000    -0.8858720000 
 H        3.0297930000    -2.2476400000     0.2841670000 
 H        1.9141270000    -1.5908250000     1.5097230000 
 H        4.0487080000    -1.3473710000     2.5445560000 
 H        3.3038870000     2.9479680000     1.5519050000 
 H        1.7031550000     2.6293390000     0.8506410000 
 H        3.1080190000     2.7448920000    -0.2006720000 
*
