! RI PBE def2-SVP def2-SVP/J NBO PAL2
% maxcore 2000
% output
    # printlevel mini
    print[ P_Basis ] 0
    print[ P_SCFInfo ] 1
    print[ P_SCFIterInfo ] 1
    print[ P_OrbEn ] 0
    print[ P_Cartesian ] 0
end
*xyz 0 1
 C        0.9690640000     0.0305040000    -0.0307780000 
 C        2.2955940000     0.0073380000    -0.0216670000 
 C        3.0705640000     1.3027260000    -0.0128710000 
 N        4.5023700000     1.1309210000    -0.0012970000 
 N        5.1712720000    -0.0194980000     0.0003560000 
 C        4.5432130000    -1.1286050000    -0.0080320000 
 C        3.0596510000    -1.2894190000    -0.0200700000 
 H        0.4150030000     0.9634820000    -0.0319550000 
 H        0.3903290000    -0.8865050000    -0.0373830000 
 H        2.7632730000     1.8843100000     0.8660050000 
 H        2.7777460000     1.8876060000    -0.8945300000 
 H        5.0898610000     1.9415260000     0.0053860000 
 H        5.1631600000    -2.0192880000    -0.0058920000 
 H        2.7550660000    -1.8880170000     0.8471560000 
 H        2.7685430000    -1.8822910000    -0.8958260000 
*
