! RI PBE def2-SVP def2-SVP/J NBO PAL2
% maxcore 2000
% output
    # printlevel mini
    print[ P_Basis ] 0
    print[ P_SCFInfo ] 1
    print[ P_SCFIterInfo ] 1
    print[ P_OrbEn ] 0
    print[ P_Cartesian ] 0
end
*xyz 0 1
 C        0.9879510000    -0.0173830000     0.3992860000 
 C        2.4222060000    -0.0384690000    -0.0930650000 
 C        2.7444820000     1.1585740000    -0.9729000000 
 N        4.1322920000     1.0915100000    -1.3736490000 
 N        4.5636900000    -0.0420430000    -1.9884100000 
 C        3.9385070000    -1.1302320000    -1.7694230000 
 C        2.7393850000    -1.3027140000    -0.8863970000 
 H        0.7849450000     0.8691750000     1.0057730000 
 H        0.7696060000    -0.8973480000     1.0096590000 
 H        0.2878880000    -0.0166920000    -0.4422250000 
 H        3.0990440000     0.0077380000     0.7672780000 
 H        2.5867170000     2.0961270000    -0.4332980000 
 H        2.0694190000     1.1519440000    -1.8463130000 
 H        4.4683880000     1.8951850000    -1.8792240000 
 H        4.3500350000    -2.0072780000    -2.2625520000 
 H        2.9078530000    -2.1476660000    -0.2092340000 
 H        1.8769730000    -1.5896180000    -1.5038980000 
*
