! RI PBE def2-SVP def2-SVP/J NBO PAL2
% maxcore 2000
% output
    # printlevel mini
    print[ P_Basis ] 0
    print[ P_SCFInfo ] 1
    print[ P_SCFIterInfo ] 1
    print[ P_OrbEn ] 0
    print[ P_Cartesian ] 0
end
*xyz 0 1
 C        0.9440080000    -0.3242050000     0.0465230000 
 C        2.4389900000    -0.2559650000    -0.0431230000 
 N        3.1161240000    -0.5366830000    -1.3058310000 
 C        3.1091490000     0.8308630000    -0.7866860000 
 C        4.4206500000     1.3894720000    -0.3708870000 
 C        4.9773660000     2.5631940000    -1.0687050000 
 N        4.4734760000     2.6854470000     0.2977030000 
 H        0.6002040000    -1.3616650000     0.0859830000 
 H        0.4776890000     0.1539390000    -0.8199490000 
 H        0.5803600000     0.1807700000     0.9452510000 
 H        2.9699710000    -0.6639500000     0.8143410000 
 H        2.4378630000    -0.6352780000    -2.0543980000 
 H        2.4483110000     1.5482490000    -1.2753450000 
 H        5.1083810000     0.6513540000     0.0322000000 
 H        4.3920720000     2.9869370000    -1.8798810000 
 H        6.0506450000     2.6766750000    -1.1746150000 
 H        3.5534320000     3.1151460000     0.2957980000 
*
