! RI PBE def2-SVP def2-SVP/J NBO PAL2
% maxcore 2000
% output
    # printlevel mini
    print[ P_Basis ] 0
    print[ P_SCFInfo ] 1
    print[ P_SCFIterInfo ] 1
    print[ P_OrbEn ] 0
    print[ P_Cartesian ] 0
end
*xyz 0 1
 C        0.8353660000     0.0519580000    -0.1766500000 
 C        2.3146300000     0.1857520000     0.0256930000 
 N        3.2352650000    -0.7447460000    -0.6289700000 
 C        3.1966610000     0.6523600000    -1.0584000000 
 C        4.4363440000     1.4686100000    -0.7964620000 
 C        4.1711290000     2.9383910000    -0.8162750000 
 C        4.4022430000     3.7684500000     0.1909840000 
 H        0.4294030000    -0.7734150000     0.4151710000 
 H        0.6007640000    -0.1382150000    -1.2281630000 
 H        0.3145150000     0.9650700000     0.1231900000 
 H        2.6179670000     0.4273700000     1.0423290000 
 H        2.7258360000    -1.3306720000    -1.2830400000 
 H        2.7018300000     0.8626490000    -2.0059840000 
 H        5.1818250000     1.2188560000    -1.5626170000 
 H        4.8604950000     1.1688070000     0.1654390000 
 H        3.7515540000     3.3379780000    -1.7388250000 
 H        4.8206800000     3.4165030000     1.1291430000 
 H        4.1885030000     4.8283740000     0.1146380000 
*
