! RI PBE def2-SVP def2-SVP/J NBO PAL2
% maxcore 2000
% output
    # printlevel mini
    print[ P_Basis ] 0
    print[ P_SCFInfo ] 1
    print[ P_SCFIterInfo ] 1
    print[ P_OrbEn ] 0
    print[ P_Cartesian ] 0
end
*xyz 0 1
 C        0.7439960000     0.3363430000    -0.8110460000 
 C        2.0728540000     0.0934650000    -0.1609460000 
 N        2.7818390000    -1.1649910000    -0.3829440000 
 C        3.3213710000     0.0724800000    -0.9490460000 
 C        4.6349590000     0.5519270000    -0.4050420000 
 C        4.8461910000     2.0414070000    -0.6087730000 
 N        6.1622350000     2.4395170000    -0.1332060000 
 H       -0.0516070000    -0.2134140000    -0.2998940000 
 H        0.7575580000     0.0167960000    -1.8571550000 
 H        0.4821580000     1.3976910000    -0.7886340000 
 H        2.1475490000     0.4369430000     0.8692300000 
 H        2.3081490000    -1.7035010000    -1.1013510000 
 H        3.1920390000     0.2121620000    -2.0221890000 
 H        5.4584070000     0.0082460000    -0.8795500000 
 H        4.6752910000     0.3090290000     0.6628110000 
 H        4.0162030000     2.5878680000    -0.1320430000 
 H        4.7941830000     2.2703720000    -1.6790070000 
 H        6.2423630000     2.2656220000     0.8617810000 
 H        6.3088540000     3.4315460000    -0.2702770000 
*
