! RI PBE def2-SVP def2-SVP/J NBO PAL2
% maxcore 2000
% output
    # printlevel mini
    print[ P_Basis ] 0
    print[ P_SCFInfo ] 1
    print[ P_SCFIterInfo ] 1
    print[ P_OrbEn ] 0
    print[ P_Cartesian ] 0
end
*xyz 0 1
 C        0.9022500000    -0.4744320000    -0.6741350000 
 C        1.4570260000     0.9037080000    -0.4684840000 
 N        2.7442850000     1.1079520000     0.2042560000 
 C        2.6071060000     1.4534610000    -1.2198900000 
 C        3.3411370000     0.6437340000    -2.2530710000 
 C        2.6584060000     2.9463540000    -1.4454500000 
 N        4.0239740000     3.4199180000    -1.2881840000 
 H        0.4806190000    -0.8581850000     0.2591640000 
 H        1.6623600000    -1.1810750000    -1.0112530000 
 H        0.1011180000    -0.4639060000    -1.4182710000 
 H        0.7087330000     1.6266660000    -0.1477830000 
 H        3.2197590000     0.2140880000     0.2911740000 
 H        3.3949450000    -0.4140890000    -1.9920700000 
 H        4.3585130000     1.0263920000    -2.3575040000 
 H        2.8523240000     0.7253730000    -3.2284440000 
 H        1.9445500000     3.4220460000    -0.7572920000 
 H        2.3265770000     3.1689700000    -2.4656370000 
 H        4.3095670000     3.2677960000    -0.3272660000 
 H        4.0830510000     4.4140400000    -1.4661570000 
*
