! RI PBE def2-SVP def2-SVP/J NBO PAL2
% maxcore 2000
% output
    # printlevel mini
    print[ P_Basis ] 0
    print[ P_SCFInfo ] 1
    print[ P_SCFIterInfo ] 1
    print[ P_OrbEn ] 0
    print[ P_Cartesian ] 0
end
*xyz 0 1
 C        0.9537000000    -0.0581700000    -0.3292390000 
 C        2.3881520000    -0.0127920000     0.0542980000 
 N        3.0666380000     1.0648680000     0.1944540000 
 C        4.4192190000     0.6680230000     0.4623120000 
 C        5.1260530000    -0.1046030000    -0.6147790000 
 C        4.4502300000    -0.8483710000     0.5006960000 
 N        3.0707460000    -1.1809410000     0.3289760000 
 H        0.5570450000     0.9546640000    -0.3483160000 
 H        0.3806710000    -0.6621820000     0.3786530000 
 H        0.8286970000    -0.4998590000    -1.3222120000 
 H        4.9930910000     1.2960900000     1.1315680000 
 H        6.2084980000    -0.0893740000    -0.5934220000 
 H        4.6776580000    -0.1210890000    -1.6019700000 
 H        5.0182230000    -1.4390820000     1.2084370000 
 H        2.7909700000    -2.0520710000    -0.0904560000 
*
