! RI PBE def2-SVP def2-SVP/J NBO PAL2
% maxcore 2000
% output
    # printlevel mini
    print[ P_Basis ] 0
    print[ P_SCFInfo ] 1
    print[ P_SCFIterInfo ] 1
    print[ P_OrbEn ] 0
    print[ P_Cartesian ] 0
end
*xyz 0 1
 C        0.8694430000     0.0733380000     0.0367140000 
 C        2.3710100000    -0.0475340000     0.0405940000 
 N        3.1201200000     1.0188860000     0.7489580000 
 C        4.0272710000    -0.0055760000     1.3172670000 
 C        3.0952410000    -1.1524750000     0.8658650000 
 C        2.2765410000    -1.6978470000     2.0214350000 
 C        3.7243290000    -2.2740750000     0.0668590000 
 H        0.5704640000     0.9954720000    -0.4694770000 
 H        0.4587160000     0.0956450000     1.0494110000 
 H        0.4083930000    -0.7615340000    -0.4976220000 
 H        2.7234560000    -0.0809240000    -0.9985990000 
 H        2.5415690000     1.4212830000     1.4782930000 
 H        4.2115480000     0.0753680000     2.3924270000 
 H        4.9919230000     0.0000330000     0.7993550000 
 H        1.8464290000    -0.8967970000     2.6289140000 
 H        2.9084650000    -2.3037250000     2.6775950000 
 H        1.4562420000    -2.3310560000     1.6715230000 
 H        4.3260890000    -1.8821070000    -0.7574220000 
 H        2.9599720000    -2.9322070000    -0.3581440000 
 H        4.3751910000    -2.8901790000     0.6948650000 
*
