! RI PBE def2-SVP def2-SVP/J NBO PAL2
% maxcore 2000
% output
    # printlevel mini
    print[ P_Basis ] 0
    print[ P_SCFInfo ] 1
    print[ P_SCFIterInfo ] 1
    print[ P_OrbEn ] 0
    print[ P_Cartesian ] 0
end
*xyz 0 1
 C        1.0077090000    -0.0427750000     0.1477040000 
 C        2.5040190000     0.0128680000    -0.0124220000 
 N        3.1916320000     1.1892560000     0.5725720000 
 C        4.1628950000     0.2978440000     1.2441510000 
 C        3.3596530000    -0.9590400000     0.8424180000 
 C        4.0663660000    -2.0665940000     0.1574130000 
 C        3.9922700000    -3.3482860000     0.4930420000 
 H        0.5282080000     0.7879100000    -0.3777900000 
 H        0.7242240000     0.0099480000     1.2036790000 
 H        0.6101520000    -0.9741350000    -0.2641090000 
 H        2.7599090000    -0.0661900000    -1.0763950000 
 H        2.5947640000     1.6565640000     1.2447550000 
 H        4.2909190000     0.4593170000     2.3170340000 
 H        5.1480530000     0.3524850000     0.7699540000 
 H        2.7759650000    -1.3455220000     1.6836340000 
 H        4.6878730000    -1.7774220000    -0.6900000000 
 H        3.3869220000    -3.6788480000     1.3317780000 
 H        4.5327650000    -4.1121490000    -0.0540080000 
*
