! RI PBE def2-SVP def2-SVP/J NBO PAL2
% maxcore 2000
% output
    # printlevel mini
    print[ P_Basis ] 0
    print[ P_SCFInfo ] 1
    print[ P_SCFIterInfo ] 1
    print[ P_OrbEn ] 0
    print[ P_Cartesian ] 0
end
*xyz 0 1
 C        1.0116450000     0.0715130000    -0.0099290000 
 C        2.5126370000    -0.0065430000    -0.0635250000 
 N        3.2633810000     1.0549480000     0.6512550000 
 C        4.1695170000     0.0338790000     1.2232130000 
 C        3.2254290000    -1.1042230000     0.7722490000 
 C        3.7693630000    -2.2623360000     0.1043970000 
 C        4.2319790000    -3.2096290000    -0.4724850000 
 H        0.6557560000     0.9818690000    -0.4995520000 
 H        0.6542460000     0.0762430000     1.0246950000 
 H        0.5621010000    -0.7833790000    -0.5211040000 
 H        2.8503790000    -0.0442640000    -1.1046480000 
 H        2.6808460000     1.4546770000     1.3789800000 
 H        4.3577160000     0.1120880000     2.2954030000 
 H        5.1261640000     0.0173260000     0.6957800000 
 H        2.5801570000    -1.4186410000     1.5993120000 
 H        4.6410860000    -4.0510290000    -0.9796320000 
*
