! RI PBE def2-SVP def2-SVP/J NBO PAL2
% maxcore 2000
% output
    # printlevel mini
    print[ P_Basis ] 0
    print[ P_SCFInfo ] 1
    print[ P_SCFIterInfo ] 1
    print[ P_OrbEn ] 0
    print[ P_Cartesian ] 0
end
*xyz 0 1
 C        0.9809180000     0.0712680000    -0.2222440000 
 C        2.4722610000     0.0069110000    -0.0110830000 
 N        2.9560390000     0.2103740000     1.3261200000 
 C        3.2746540000    -0.9441550000    -0.8555990000 
 C        3.3620340000     0.5369130000    -1.0957780000 
 C        4.6047320000     1.3042280000    -0.7538890000 
 N        4.2622940000     2.6674770000    -0.3520930000 
 H        0.4700390000    -0.6967350000     0.3682590000 
 H        0.7142060000    -0.0850450000    -1.2708420000 
 H        0.5904080000     1.0463820000     0.0850030000 
 H        2.4517330000    -0.3689420000     1.9857160000 
 H        2.8414090000     1.1814380000     1.5941750000 
 H        2.7581890000    -1.5573180000    -1.5845120000 
 H        4.1232560000    -1.4139560000    -0.3732250000 
 H        2.8381960000     0.9004760000    -1.9773750000 
 H        5.3017670000     1.2589610000    -1.6057560000 
 H        5.0927700000     0.8200470000     0.0939130000 
 H        3.8411920000     3.1654250000    -1.1281450000 
 H        5.0982030000     3.1805700000    -0.0993460000 
*
