! RI PBE def2-SVP def2-SVP/J NBO PAL2
% maxcore 2000
% output
    # printlevel mini
    print[ P_Basis ] 0
    print[ P_SCFInfo ] 1
    print[ P_SCFIterInfo ] 1
    print[ P_OrbEn ] 0
    print[ P_Cartesian ] 0
end
*xyz 0 1
 C        0.8889140000    -0.2222020000    -0.7319530000 
 C        2.1075900000     0.4742920000    -0.1717270000 
 N        1.9401740000     1.0472210000     1.1348110000 
 C        3.4654520000    -0.1092450000    -0.4478420000 
 C        3.0699620000     1.1809260000    -1.1119760000 
 C        2.8000720000     1.1825710000    -2.5989210000 
 N        3.7238320000     2.3551110000    -0.6051950000 
 H        0.5470080000    -0.9837880000    -0.0239890000 
 H        1.0735590000    -0.7220260000    -1.6833520000 
 H        0.0652930000     0.4849230000    -0.8774800000 
 H        1.6823000000     0.3249300000     1.7973520000 
 H        1.1936330000     1.7327070000     1.1353540000 
 H        3.5264470000    -1.0048040000    -1.0558480000 
 H        4.1885080000    -0.0248430000     0.3530320000 
 H        2.3861320000     0.2428910000    -2.9660390000 
 H        3.7355060000     1.3598570000    -3.1390970000 
 H        2.1063940000     1.9853700000    -2.8705930000 
 H        4.6012740000     2.4979580000    -1.0918390000 
 H        3.1573400000     3.1807520000    -0.7614870000 
*
