! RI PBE def2-SVP def2-SVP/J NBO PAL2
% maxcore 2000
% output
    # printlevel mini
    print[ P_Basis ] 0
    print[ P_SCFInfo ] 1
    print[ P_SCFIterInfo ] 1
    print[ P_OrbEn ] 0
    print[ P_Cartesian ] 0
end
*xyz 0 1
 C        1.0221140000     0.3583700000     0.5017430000 
 C        2.2485880000    -0.2240340000    -0.1668540000 
 N        1.9989970000    -1.5811410000    -0.6569220000 
 C        2.9209090000    -1.8155150000    -1.7650010000 
 C        3.2105510000    -0.4581300000    -2.3788370000 
 C        2.0223470000     0.4117140000    -2.6474920000 
 C        2.7778500000     0.5550460000    -1.3621110000 
 H        0.6840770000    -0.2846010000     1.3175470000 
 H        0.2028520000     0.4675510000    -0.2157490000 
 H        1.2366240000     1.3465190000     0.9136780000 
 H        3.0595580000    -0.2746040000     0.5731160000 
 H        1.0445480000    -1.6404190000    -0.9887850000 
 H        2.4912100000    -2.5367710000    -2.4657340000 
 H        3.8553200000    -2.2459220000    -1.3857170000 
 H        4.1099200000    -0.3224180000    -2.9675340000 
 H        1.0345390000    -0.0387590000    -2.6289590000 
 H        2.1350270000     1.1997670000    -3.3813370000 
 H        3.3495690000     1.4589470000    -1.1867320000 
*
