! RI PBE def2-SVP def2-SVP/J NBO PAL2
% maxcore 2000
% output
    # printlevel mini
    print[ P_Basis ] 0
    print[ P_SCFInfo ] 1
    print[ P_SCFIterInfo ] 1
    print[ P_OrbEn ] 0
    print[ P_Cartesian ] 0
end
*xyz 0 1
 C        1.1680170000    -0.0667890000     0.0390950000 
 C        2.6040420000     0.3001740000     0.0531210000 
 N        3.0833850000     1.3763640000    -0.4185440000 
 C        4.5244040000     1.3625140000    -0.1939350000 
 C        4.8171240000    -0.0004640000     0.4034040000 
 C        4.4079750000    -1.1888630000    -0.3624190000 
 N        3.5117720000    -0.6239380000     0.6633120000 
 H        0.5858260000     0.7041330000    -0.4612540000 
 H        0.8092150000    -0.1961840000     1.0631220000 
 H        1.0271430000    -1.0245930000    -0.4694920000 
 H        4.7930230000     2.1643800000     0.5014500000 
 H        5.0541800000     1.5600740000    -1.1307670000 
 H        5.5582980000    -0.1015250000     1.1875380000 
 H        4.8212130000    -2.1605720000    -0.1173430000 
 H        4.1167720000    -1.0510020000    -1.3999890000 
*
