! RI PBE def2-SVP def2-SVP/J NBO PAL2
% maxcore 2000
% output
    # printlevel mini
    print[ P_Basis ] 0
    print[ P_SCFInfo ] 1
    print[ P_SCFIterInfo ] 1
    print[ P_OrbEn ] 0
    print[ P_Cartesian ] 0
end
*xyz 0 1
 C        1.0505960000     0.2256330000    -0.3023360000 
 C        2.4799470000     0.0584890000     0.1894590000 
 N        2.6173820000    -1.1154800000     1.0499030000 
 C        3.5412820000    -0.8203640000     2.1393590000 
 C        3.5682240000     0.6722640000     2.1500610000 
 C        2.9809470000     1.1753730000     1.0701500000 
 C        2.8375120000     2.6046960000     0.6905220000 
 H        0.7382550000    -0.6565850000    -0.8660740000 
 H        0.9530370000     1.0936950000    -0.9601670000 
 H        0.3720690000     0.3414410000     0.5457880000 
 H        3.1377830000     0.0056190000    -0.7001570000 
 H        2.8697990000    -1.9456780000     0.5354360000 
 H        4.5564660000    -1.2231970000     1.9783000000 
 H        3.1841460000    -1.2432390000     3.0871500000 
 H        4.0353050000     1.2500570000     2.9388860000 
 H        3.3109530000     3.2596650000     1.4232450000 
 H        1.7846990000     2.8916210000     0.6071820000 
 H        3.2935880000     2.7990800000    -0.2865170000 
*
