! RI PBE def2-SVP def2-SVP/J NBO PAL2
% maxcore 2000
% output
    # printlevel mini
    print[ P_Basis ] 0
    print[ P_SCFInfo ] 1
    print[ P_SCFIterInfo ] 1
    print[ P_OrbEn ] 0
    print[ P_Cartesian ] 0
end
*xyz 0 1
 C        1.1558950000     0.1109110000    -0.1217280000 
 C        2.6464030000     0.0729450000     0.1143100000 
 N        3.0958460000     1.1536130000     0.9797240000 
 C        4.4111770000     0.7480010000     1.4938980000 
 C        4.5381350000    -0.7755680000     1.2936190000 
 C        3.1681430000    -1.2134740000     0.7783000000 
 N        3.2372930000    -2.4208320000    -0.0172120000 
 H        0.8538090000     1.0505780000    -0.5881730000 
 H        0.6118830000     0.0085730000     0.8238280000 
 H        0.8423720000    -0.7056310000    -0.7772140000 
 H        3.1645140000     0.1747260000    -0.8532150000 
 H        2.4425540000     1.2412140000     1.7496690000 
 H        4.5080590000     1.0418360000     2.5408820000 
 H        5.1967910000     1.2750690000     0.9439770000 
 H        4.8254500000    -1.3086790000     2.2008080000 
 H        5.2940950000    -1.0074910000     0.5364540000 
 H        2.5108830000    -1.4230870000     1.6337430000 
 H        3.8185210000    -2.2733530000    -0.8350220000 
 H        2.3191950000    -2.6957610000    -0.3440470000 
*
