! RI PBE def2-SVP def2-SVP/J NBO PAL2
% maxcore 2000
% output
    # printlevel mini
    print[ P_Basis ] 0
    print[ P_SCFInfo ] 1
    print[ P_SCFIterInfo ] 1
    print[ P_OrbEn ] 0
    print[ P_Cartesian ] 0
end
*xyz 0 1
 C        0.8633930000     0.0214160000    -0.0021330000 
 C        2.3761410000     0.0617290000    -0.0626420000 
 N        2.9120860000     0.0883570000    -1.4159480000 
 C        3.1042670000     1.1246150000     0.7867320000 
 C        4.1577200000     0.0697140000     1.1686450000 
 C        3.1573260000    -1.0195730000     0.7631970000 
 N        3.6915750000    -2.2058070000     0.1587150000 
 H        0.4249360000     0.8973150000    -0.4914520000 
 H        0.5029040000    -0.0027440000     1.0301150000 
 H        0.4786060000    -0.8689840000    -0.5119590000 
 H        2.6797680000     0.9664830000    -1.8660260000 
 H        2.4896160000    -0.6459910000    -1.9737760000 
 H        2.4984810000     1.4327940000     1.6415480000 
 H        3.4497290000     2.0154950000     0.2585380000 
 H        4.5332470000     0.0560940000     2.1923930000 
 H        5.0011140000     0.0868990000     0.4769240000 
 H        2.5473920000    -1.3089810000     1.6249750000 
 H        4.1608180000    -1.9682400000    -0.7076470000 
 H        2.9738900000    -2.8907710000    -0.0416080000 
*
