! RI PBE def2-SVP def2-SVP/J NBO PAL2
% maxcore 2000
% output
    # printlevel mini
    print[ P_Basis ] 0
    print[ P_SCFInfo ] 1
    print[ P_SCFIterInfo ] 1
    print[ P_OrbEn ] 0
    print[ P_Cartesian ] 0
end
*xyz 0 1
 C        0.9524020000     0.0278340000     0.0366890000 
 C        2.4707580000     0.0015280000     0.1487760000 
 N        3.1399020000     0.0411940000    -1.1532870000 
 C        3.0305630000     1.1462830000     0.9968310000 
 C        4.4407300000     0.6987540000     1.3948580000 
 C        4.4184610000    -0.8449600000     1.3357840000 
 C        2.9962170000    -1.2199320000     0.9070230000 
 H        0.6164930000     0.9363560000    -0.4725200000 
 H        0.4739650000    -0.0025970000     1.0197910000 
 H        0.5908940000    -0.8293130000    -0.5396340000 
 H        2.8719200000     0.8788250000    -1.6580570000 
 H        2.8485280000    -0.7478530000    -1.7196280000 
 H        2.3984340000     1.2677140000     1.8821550000 
 H        3.0180460000     2.0994120000     0.4598680000 
 H        4.7144040000     1.0716000000     2.3842470000 
 H        5.1757130000     1.0901790000     0.6906750000 
 H        4.6807810000    -1.3000990000     2.2933020000 
 H        5.1421620000    -1.2023940000     0.6024470000 
 H        2.3600790000    -1.3895760000     1.7814850000 
 H        2.9564380000    -2.1289450000     0.2995130000 
*
