! RI PBE def2-SVP def2-SVP/J NBO PAL2
% maxcore 2000
% output
    # printlevel mini
    print[ P_Basis ] 0
    print[ P_SCFInfo ] 1
    print[ P_SCFIterInfo ] 1
    print[ P_OrbEn ] 0
    print[ P_Cartesian ] 0
end
*xyz 0 1
 C        0.8949150000     0.0114190000    -0.1126120000 
 C        2.4228160000     0.0121420000    -0.0761850000 
 N        2.9573590000     0.0195290000     1.2828370000 
 C        2.9565330000    -1.2104890000    -0.8583920000 
 C        3.2626990000    -0.6629270000    -2.2180010000 
 C        3.2622430000     0.6650500000    -2.2250390000 
 C        2.9556900000     1.2267820000    -0.8713100000 
 H        0.4971180000    -0.8720300000     0.3958870000 
 H        0.5242300000     0.0058810000    -1.1418930000 
 H        0.4965010000     0.8998870000     0.3865750000 
 H        2.6154040000    -0.7886960000     1.7923060000 
 H        2.6148400000     0.8328690000     1.7837150000 
 H        2.2324420000    -2.0324550000    -0.8798000000 
 H        3.8656280000    -1.5939580000    -0.3800470000 
 H        3.4897630000    -1.2902480000    -3.0724620000 
 H        3.4888790000     1.2834350000    -3.0861020000 
 H        2.2310320000     2.0479740000    -0.9014290000 
 H        3.8645190000     1.6159270000    -0.3970590000 
*
