! RI PBE def2-SVP def2-SVP/J NBO PAL2
% maxcore 2000
% output
    # printlevel mini
    print[ P_Basis ] 0
    print[ P_SCFInfo ] 1
    print[ P_SCFIterInfo ] 1
    print[ P_OrbEn ] 0
    print[ P_Cartesian ] 0
end
*xyz 0 1
 C        1.0249950000    -0.0770950000    -0.0671440000 
 C        2.5519050000    -0.1068680000    -0.0648960000 
 N        2.9960410000     0.1074100000    -1.4363330000 
 C        3.0936110000    -1.3866610000     0.6258320000 
 C        3.3915400000    -0.9962260000     2.0794370000 
 C        3.5337780000     0.4961050000     1.9976070000 
 C        3.0895530000     0.9735200000     0.8421840000 
 H        0.6280830000    -0.8535920000    -0.7294340000 
 H        0.6616090000     0.8894830000    -0.4211930000 
 H        0.6316450000    -0.2532840000     0.9361660000 
 H        2.6227530000    -0.6114840000    -2.0457580000 
 H        4.0066180000     0.0543520000    -1.4912630000 
 H        4.0269390000    -1.6703510000     0.1306850000 
 H        2.4057780000    -2.2312040000     0.5362730000 
 H        4.2826420000    -1.4895850000     2.4785950000 
 H        2.5667910000    -1.2636900000     2.7522020000 
 H        3.9133520000     1.0981150000     2.8156310000 
 H        3.0475680000     2.0180360000     0.5546980000 
*
