! RI PBE def2-SVP def2-SVP/J NBO PAL2
% maxcore 2000
% output
    # printlevel mini
    print[ P_Basis ] 0
    print[ P_SCFInfo ] 1
    print[ P_SCFIterInfo ] 1
    print[ P_OrbEn ] 0
    print[ P_Cartesian ] 0
end
*xyz 0 1
 C        0.9812210000     0.1072340000    -0.3427970000 
 C        2.3927800000    -0.0394130000     0.2089350000 
 N        2.5225720000    -1.2120000000     1.0788440000 
 C        3.2421500000    -0.8707380000     2.3079830000 
 C        4.6428970000    -1.4703200000     2.3893120000 
 C        3.2539660000     0.6276630000     2.2721500000 
 C        2.8062020000     1.0830510000     1.1120990000 
 H        0.7152940000    -0.7618250000    -0.9490390000 
 H        0.8953460000     0.9984300000    -0.9714910000 
 H        0.2642750000     0.1820750000     0.4773830000 
 H        3.0851560000    -0.0861070000    -0.6495260000 
 H        2.9368100000    -2.0000650000     0.6037590000 
 H        2.6759710000    -1.2255410000     3.1824210000 
 H        5.2626420000    -1.1188720000     1.5599780000 
 H        4.5970390000    -2.5627230000     2.3533560000 
 H        5.1345790000    -1.1927090000     3.3255830000 
 H        3.6082730000     1.2283860000     3.1012260000 
 H        2.7289360000     2.1238960000     0.8219020000 
*
