! RI PBE def2-SVP def2-SVP/J NBO PAL2
% maxcore 2000
% output
    # printlevel mini
    print[ P_Basis ] 0
    print[ P_SCFInfo ] 1
    print[ P_SCFIterInfo ] 1
    print[ P_OrbEn ] 0
    print[ P_Cartesian ] 0
end
*xyz 0 1
 C        1.0511590000     0.1435870000    -0.0277720000 
 C        2.5638630000    -0.0327700000     0.0729710000 
 N        3.2581120000     1.1822410000    -0.3510890000 
 C        3.5071380000     1.2245760000    -1.7826410000 
 C        4.3368430000     0.0511700000    -2.2889040000 
 C        3.8378020000    -1.2323270000    -1.7034310000 
 C        3.0220700000    -1.2664030000    -0.6551010000 
 H        0.7300140000     0.9832280000     0.5906340000 
 H        0.5299890000    -0.7584200000     0.3028670000 
 H        0.7502730000     0.3394450000    -1.0594950000 
 H        2.8007530000    -0.1686310000     1.1357620000 
 H        4.1439290000     1.2397400000     0.1364600000 
 H        3.9870980000     2.1765420000    -2.0243290000 
 H        2.5392400000     1.2256430000    -2.2942800000 
 H        5.3965270000     0.1922490000    -2.0348310000 
 H        4.2986160000     0.0038150000    -3.3832520000 
 H        4.1553900000    -2.1611090000    -2.1693520000 
 H        2.6534940000    -2.2204650000    -0.2861380000 
*
