! RI PBE def2-SVP def2-SVP/J NBO PAL2
% maxcore 2000
% output
    # printlevel mini
    print[ P_Basis ] 0
    print[ P_SCFInfo ] 1
    print[ P_SCFIterInfo ] 1
    print[ P_OrbEn ] 0
    print[ P_Cartesian ] 0
end
*xyz 0 1
 C        1.1006350000     0.0664010000     0.0488870000 
 C        2.5943870000     0.1149730000     0.0374220000 
 N        3.1952240000     1.2537650000     0.0429570000 
 C        4.5877230000     1.1918840000     0.0314300000 
 C        5.3099640000     0.0714180000     0.0154970000 
 C        4.6579780000    -1.2737330000     0.0082990000 
 N        3.2166210000    -1.0892860000     0.0216440000 
 H        0.7154450000     1.0828010000     0.0610230000 
 H        0.7344550000    -0.4671690000     0.9310010000 
 H        0.7203560000    -0.4514210000    -0.8366370000 
 H        5.0814980000     2.1584620000     0.0363910000 
 H        6.3925170000     0.1089070000     0.0073150000 
 H        4.9725510000    -1.8683830000     0.8797180000 
 H        4.9583840000    -1.8521160000    -0.8789330000 
 H        2.6375520000    -1.9102020000     0.0187980000 
*
