! RI PBE def2-SVP def2-SVP/J NBO PAL2
% maxcore 2000
% output
    # printlevel mini
    print[ P_Basis ] 0
    print[ P_SCFInfo ] 1
    print[ P_SCFIterInfo ] 1
    print[ P_OrbEn ] 0
    print[ P_Cartesian ] 0
end
*xyz 0 1
 C        1.0787130000    -0.0391910000    -0.0168530000 
 N        2.5184580000    -0.0356740000    -0.0127060000 
 C        3.3307560000     1.0701100000    -0.0065280000 
 C        4.6060970000     0.5879460000    -0.0044980000 
 N        4.5978110000    -0.7777030000    -0.0092620000 
 C        3.3328880000    -1.1270670000    -0.0141390000 
 C        2.8234340000    -2.5196090000    -0.0204540000 
 H        0.7206460000     0.9889430000    -0.0144880000 
 H        0.6840300000    -0.5442720000     0.8678590000 
 H        0.6891420000    -0.5384040000    -0.9071420000 
 H        2.9287690000     2.0702290000    -0.0042250000 
 H        5.5277110000     1.1494020000     0.0001190000 
 H        3.6767520000    -3.1952380000    -0.0202380000 
 H        2.2154270000    -2.7310450000    -0.9057110000 
 H        2.2101570000    -2.7371270000     0.8596780000 
*
