! RI PBE def2-SVP def2-SVP/J NBO PAL2
% maxcore 2000
% output
    # printlevel mini
    print[ P_Basis ] 0
    print[ P_SCFInfo ] 1
    print[ P_SCFIterInfo ] 1
    print[ P_OrbEn ] 0
    print[ P_Cartesian ] 0
end
*xyz 0 1
 C        0.9280200000    -0.0368600000    -0.0837890000 
 C        2.4356380000     0.0931110000     0.0504740000 
 N        3.1139100000    -1.1335090000    -0.3870850000 
 C        3.9289250000    -0.7804750000    -1.2948150000 
 N        3.9640890000     0.5630190000    -1.5836510000 
 C        3.0290960000     1.2147870000    -0.7922780000 
 C        2.7397660000     2.5146060000    -0.7965430000 
 H        0.5720920000    -0.8767370000     0.5149010000 
 H        0.6530450000    -0.2126100000    -1.1255730000 
 H        0.4317810000     0.8751380000     0.2544440000 
 H        2.6839040000     0.2561740000     1.1059330000 
 H        4.5820760000    -1.4631420000    -1.8290100000 
 H        4.5018800000     0.9903530000    -2.3151640000 
 H        3.2391120000     3.2136920000    -1.4560280000 
 H        1.9890460000     2.9080640000    -0.1254260000 
*
