! RI PBE def2-SVP def2-SVP/J NBO PAL2
% maxcore 2000
% output
    # printlevel mini
    print[ P_Basis ] 0
    print[ P_SCFInfo ] 1
    print[ P_SCFIterInfo ] 1
    print[ P_OrbEn ] 0
    print[ P_Cartesian ] 0
end
*xyz 0 1
 C        1.1760190000     0.2113860000     0.3550850000 
 C        2.5685430000    -0.0826630000    -0.1571570000 
 N        2.5979730000    -1.1102220000    -1.1986090000 
 C        3.5623640000    -0.7143990000    -2.0983570000 
 N        3.9770450000     0.4837820000    -2.0216840000 
 C        3.2502210000     1.0907860000    -0.9008350000 
 C        4.1506350000     1.9386270000    -0.0296750000 
 H        0.7340630000    -0.6605430000     0.8440290000 
 H        0.5225900000     0.5084430000    -0.4681340000 
 H        1.2025840000     1.0223210000     1.0878290000 
 H        3.2087670000    -0.3903850000     0.6845440000 
 H        2.5672100000    -2.0802540000    -0.9267470000 
 H        3.8991210000    -1.4138010000    -2.8592240000 
 H        2.4686810000     1.7343670000    -1.3319120000 
 H        4.9569630000     1.3328090000     0.3913210000 
 H        3.5898950000     2.3892530000     0.7942130000 
 H        4.6014260000     2.7405940000    -0.6163860000 
*
