! RI PBE def2-SVP def2-SVP/J NBO PAL2
% maxcore 2000
% output
    # printlevel mini
    print[ P_Basis ] 0
    print[ P_SCFInfo ] 1
    print[ P_SCFIterInfo ] 1
    print[ P_OrbEn ] 0
    print[ P_Cartesian ] 0
end
*xyz 0 1
 C        0.9587910000    -0.0702720000    -0.1621100000 
 C        2.2706950000    -0.0170680000     0.0941120000 
 N        3.1217070000    -1.0803950000     0.3465850000 
 C        4.4233530000    -0.6603510000     0.5719460000 
 N        5.4698470000    -1.3367850000     0.8328170000 
 C        4.3701240000     0.8023730000     0.4464420000 
 C        3.1149680000     1.1718260000     0.1682690000 
 H        0.4142720000    -1.0053850000    -0.1967140000 
 H        0.4097330000     0.8429460000    -0.3428540000 
 H        2.8315680000    -2.0408880000     0.3644590000 
 H        5.2764790000    -2.3359440000     0.8729460000 
 H        5.2447500000     1.4221430000     0.5713480000 
 H        2.7364240000     2.1719020000     0.0145450000 
*
