! RI PBE def2-SVP def2-SVP/J NBO PAL2
% maxcore 2000
% output
    # printlevel mini
    print[ P_Basis ] 0
    print[ P_SCFInfo ] 1
    print[ P_SCFIterInfo ] 1
    print[ P_OrbEn ] 0
    print[ P_Cartesian ] 0
end
*xyz 0 1
 C        0.9788650000     0.1441160000    -0.3008630000 
 C        2.4474910000    -0.0114490000     0.0675460000 
 N        2.7075200000    -1.1705370000     0.8963360000 
 C        3.4517420000    -0.8637660000     2.0191940000 
 N        3.9719350000    -1.6247620000     2.8990860000 
 C        3.5383840000     0.6045080000     2.0327440000 
 C        2.9786950000     1.0938900000     0.9304240000 
 H        0.6350010000    -0.7096380000    -0.8892730000 
 H        0.8265060000     1.0462700000    -0.8985070000 
 H        0.3671320000     0.2112700000     0.6006610000 
 H        3.0385460000    -0.0568900000    -0.8615060000 
 H        2.7444130000    -2.0917910000     0.4965070000 
 H        3.7931970000    -2.6072690000     2.6985360000 
 H        4.0068310000     1.1441030000     2.8425450000 
 H        2.8859540000     2.1358660000     0.6533010000 
*
