! RI PBE def2-SVP def2-SVP/J NBO PAL2
% maxcore 2000
% output
    # printlevel mini
    print[ P_Basis ] 0
    print[ P_SCFInfo ] 1
    print[ P_SCFIterInfo ] 1
    print[ P_OrbEn ] 0
    print[ P_Cartesian ] 0
end
*xyz 0 1
 C        0.9699070000    -0.1096030000    -0.0703810000 
 C        2.4450000000     0.0449400000    -0.0706540000 
 C        3.2688890000     1.1415960000    -0.0741340000 
 C        2.9037770000     2.5818610000    -0.0788990000 
 N        4.5851050000     0.7471740000    -0.0726330000 
 C        4.5656130000    -0.5562300000    -0.0683610000 
 N        3.2981120000    -1.0340430000    -0.0669850000 
 H        0.4911410000     0.8694490000    -0.0735090000 
 H        0.6132660000    -0.6460050000     0.8149960000 
 H        0.6135090000    -0.6515400000    -0.9524800000 
 H        1.8219040000     2.7231490000    -0.0798840000 
 H        3.3126240000     3.0831780000    -0.9600410000 
 H        3.3117490000     3.0888080000     0.7994280000 
 H        5.4299260000    -1.2042620000    -0.0661090000 
 H        3.0256960000    -2.0011810000    -0.0638660000 
*
