! RI PBE def2-SVP def2-SVP/J NBO PAL2
% maxcore 2000
% output
    # printlevel mini
    print[ P_Basis ] 0
    print[ P_SCFInfo ] 1
    print[ P_SCFIterInfo ] 1
    print[ P_OrbEn ] 0
    print[ P_Cartesian ] 0
end
*xyz 0 1
 C        1.1388220000    -0.0923600000    -0.0587510000 
 C        2.5996020000     0.1094460000     0.0960210000 
 N        3.1806470000     1.2078630000    -0.2148290000 
 N        4.4998700000     1.1563310000     0.1899790000 
 C        4.8566150000    -0.1840710000     0.5578230000 
 C        4.5983880000    -1.3031660000    -0.4038810000 
 C        3.5422660000    -0.9188380000     0.6043610000 
 H        0.6776220000     0.8037940000    -0.4724500000 
 H        0.6720450000    -0.3116070000     0.9073660000 
 H        0.9261280000    -0.9421310000    -0.7149750000 
 H        5.1042670000     1.6414540000    -0.4571060000 
 H        5.6235590000    -0.2878830000     1.3153840000 
 H        5.1336700000    -2.2251930000    -0.2171260000 
 H        4.4116030000    -1.0733770000    -1.4464470000 
 H        3.2572160000    -1.6110530000     1.3869200000 
*
