! RI PBE def2-SVP def2-SVP/J NBO PAL2
% maxcore 2000
% output
    # printlevel mini
    print[ P_Basis ] 0
    print[ P_SCFInfo ] 1
    print[ P_SCFIterInfo ] 1
    print[ P_OrbEn ] 0
    print[ P_Cartesian ] 0
end
*xyz 0 1
 C        0.9508320000     0.0970120000     0.0948410000 
 C        2.4295480000    -0.0066530000     0.0972840000 
 N        3.2030140000     1.0197470000     0.1020920000 
 N        4.5633260000     0.5834790000     0.1032310000 
 C        4.5827140000    -0.6962890000     0.0990750000 
 C        3.2292200000    -1.2388230000     0.0948180000 
 C        2.8265120000    -2.5084120000     0.0899630000 
 H        0.6609140000     1.1467740000     0.0976560000 
 H        0.5198760000    -0.3900760000     0.9741680000 
 H        0.5231810000    -0.3844380000    -0.7891920000 
 H        5.5102980000    -1.2557510000     0.0989950000 
 H        3.5374670000    -3.3274170000     0.0886360000 
 H        1.7733990000    -2.7688620000     0.0871430000 
*
