! RI PBE def2-SVP def2-SVP/J NBO PAL2
% maxcore 2000
% output
    # printlevel mini
    print[ P_Basis ] 0
    print[ P_SCFInfo ] 1
    print[ P_SCFIterInfo ] 1
    print[ P_OrbEn ] 0
    print[ P_Cartesian ] 0
end
*xyz 0 1
 C        1.0490030000    -0.0953440000     0.0443430000 
 C        2.5656360000    -0.0962960000    -0.0927520000 
 N        3.0533970000    -1.2075340000    -0.9188160000 
 N        3.4190570000    -0.7689310000    -2.1529340000 
 C        3.4966620000     0.5144580000    -2.1393060000 
 C        3.0800570000     1.0911590000    -0.8742730000 
 C        3.1255110000     2.3657560000    -0.4872610000 
 H        0.7020010000    -0.9927410000     0.5638830000 
 H        0.5763110000    -0.0523270000    -0.9394740000 
 H        0.7242510000     0.7761100000     0.6176600000 
 H        3.0266440000    -0.1462820000     0.8979750000 
 H        2.4863950000    -2.0411050000    -0.9656650000 
 H        3.8468690000     1.0533480000    -3.0091890000 
 H        3.5110160000     3.1351170000    -1.1456350000 
 H        2.7864910000     2.6787310000     0.4934530000 
*
