! RI PBE def2-SVP def2-SVP/J NBO PAL2
% maxcore 2000
% output
    # printlevel mini
    print[ P_Basis ] 0
    print[ P_SCFInfo ] 1
    print[ P_SCFIterInfo ] 1
    print[ P_OrbEn ] 0
    print[ P_Cartesian ] 0
end
*xyz 0 1
 C        0.9815190000     0.1541600000    -0.2451510000 
 C        2.4446660000     0.1090120000     0.0246530000 
 N        3.1057640000     1.2013800000    -0.0070330000 
 N        4.4569360000     1.1772160000     0.3445940000 
 C        5.1195260000     0.1181400000     0.1053130000 
 C        4.4870050000    -1.1526710000    -0.3639520000 
 C        3.1131940000    -1.2116830000     0.2822560000 
 H        0.6622860000     1.1803460000    -0.4204160000 
 H        0.4264480000    -0.2553530000     0.6059460000 
 H        0.7275030000    -0.4618690000    -1.1131750000 
 H        6.1847810000     0.1576030000     0.3242630000 
 H        5.1067870000    -2.0091990000    -0.0945810000 
 H        4.3975980000    -1.1489220000    -1.4584100000 
 H        3.2081690000    -1.3702910000     1.3645050000 
 H        2.5060370000    -2.0291700000    -0.1099030000 
*
