! RI PBE def2-SVP def2-SVP/J NBO PAL2
% maxcore 2000
% output
    # printlevel mini
    print[ P_Basis ] 0
    print[ P_SCFInfo ] 1
    print[ P_SCFIterInfo ] 1
    print[ P_OrbEn ] 0
    print[ P_Cartesian ] 0
end
*xyz 0 1
 C        1.0353550000     0.0027180000    -0.0868830000 
 C        2.5257830000    -0.0756290000     0.2435250000 
 N        3.2997910000     1.0397930000    -0.2852020000 
 N        3.6216900000     1.1125850000    -1.5859650000 
 C        3.7860090000    -0.0031800000    -2.2073390000 
 C        3.6904070000    -1.2779380000    -1.5312260000 
 C        3.1533590000    -1.3243790000    -0.3096520000 
 H        0.5847110000     0.8998160000     0.3476940000 
 H        0.5114520000    -0.8694760000     0.3140110000 
 H        0.8843510000     0.0230910000    -1.1681110000 
 H        2.6463830000    -0.0472960000     1.3315250000 
 H        3.0670630000     1.9476320000     0.0838430000 
 H        4.0998910000     0.0682020000    -3.2421360000 
 H        4.1032900000    -2.1615480000    -2.0049820000 
 H        3.0997550000    -2.2428020000     0.2638880000 
*
