! RI PBE def2-SVP def2-SVP/J NBO PAL2
% maxcore 2000
% output
    # printlevel mini
    print[ P_Basis ] 0
    print[ P_SCFInfo ] 1
    print[ P_SCFIterInfo ] 1
    print[ P_OrbEn ] 0
    print[ P_Cartesian ] 0
end
*xyz 0 1
 C        1.3831720000    -0.6490780000    -0.3570750000 
 C        2.4482320000    -0.0332820000     0.1370440000 
 C        3.2474150000     0.9945940000    -0.5618070000 
 C        2.7248540000     1.7768920000    -1.7115470000 
 C        2.8815330000     2.4598480000    -0.3752270000 
 C        3.9214720000     3.4232460000    -0.1869750000 
 N        4.7661060000     4.1911780000    -0.0364550000 
 H        0.8424360000    -1.3861570000     0.2242240000 
 H        1.0167360000    -0.4489860000    -1.3582740000 
 H        2.7898270000    -0.2827990000     1.1391520000 
 H        4.3185360000     0.8169490000    -0.5612140000 
 H        1.7073640000     1.6065270000    -2.0378730000 
 H        3.4170870000     2.0568960000    -2.4942380000 
 H        1.9729300000     2.6608730000     0.1800660000 
*
