! RI PBE def2-SVP def2-SVP/J NBO PAL2
% maxcore 2000
% output
    # printlevel mini
    print[ P_Basis ] 0
    print[ P_SCFInfo ] 1
    print[ P_SCFIterInfo ] 1
    print[ P_OrbEn ] 0
    print[ P_Cartesian ] 0
end
*xyz 0 1
 C        1.2692790000    -0.2444760000     0.4683280000 
 C        2.5134850000     0.1543240000    -0.3112220000 
 C        3.2220810000     1.3432040000     0.2799830000 
 C        4.1310400000     2.2111200000    -0.5535830000 
 C        2.8665690000     2.7863420000    -0.0050370000 
 C        1.7457180000     3.1335000000    -0.9453510000 
 N        3.0086180000     3.7784260000     1.0326570000 
 H        0.7907730000    -1.1261010000     0.0350750000 
 H        0.5349450000     0.5649350000     0.4784300000 
 H        1.5159850000    -0.4787410000     1.5077470000 
 H        2.2472720000     0.3589070000    -1.3528370000 
 H        3.2105440000    -0.6915710000    -0.3465050000 
 H        3.5631580000     1.1810190000     1.3009390000 
 H        4.1720150000     2.0102850000    -1.6187100000 
 H        5.0728500000     2.5421320000    -0.1296070000 
 H        1.6358940000     2.3969770000    -1.7416340000 
 H        1.9347450000     4.1089050000    -1.3992190000 
 H        0.7920830000     3.1941560000    -0.4109100000 
 H        3.8481030000     3.6152790000     1.5744600000 
 H        2.2255530000     3.7280990000     1.6756880000 
*
