! RI PBE def2-SVP def2-SVP/J NBO PAL2
% maxcore 2000
% output
    # printlevel mini
    print[ P_Basis ] 0
    print[ P_SCFInfo ] 1
    print[ P_SCFIterInfo ] 1
    print[ P_OrbEn ] 0
    print[ P_Cartesian ] 0
end
*xyz 0 1
 C        2.9214810000     1.2667520000     0.3342040000 
 C        2.4427400000    -0.1413460000     0.0199150000 
 C        2.9799450000    -1.1718580000     0.9740900000 
 C        3.1197610000    -2.5966340000     0.5725190000 
 C        4.3586540000    -1.7452960000     0.7307530000 
 C        5.2342220000    -1.9799740000     1.8369980000 
 N        5.9319670000    -2.1669810000     2.7337780000 
 H        2.5114050000     1.9901840000    -0.3734960000 
 H        4.0114550000     1.3327910000     0.2889620000 
 H        2.6145200000     1.5724630000     1.3377680000 
 H        2.7308070000    -0.4160320000    -1.0013680000 
 H        1.3480830000    -0.1776780000     0.0462470000 
 H        2.7458190000    -0.9995970000     2.0202430000 
 H        2.8564880000    -2.8713160000    -0.4418420000 
 H        2.9523830000    -3.3664480000     1.3142520000 
 H        4.8635610000    -1.4353280000    -0.1775330000 
*
