! RI PBE def2-SVP def2-SVP/J NBO PAL2
% maxcore 2000
% output
    # printlevel mini
    print[ P_Basis ] 0
    print[ P_SCFInfo ] 1
    print[ P_SCFIterInfo ] 1
    print[ P_OrbEn ] 0
    print[ P_Cartesian ] 0
end
*xyz 0 1
 C        1.3438400000     0.4858340000    -0.5522400000 
 C        1.9118870000    -0.6251050000     0.3173780000 
 C        2.8957640000    -1.4960350000    -0.4139950000 
 C        3.1774940000    -2.8944310000     0.0490070000 
 C        2.4251400000    -2.6661820000    -1.2242680000 
 N        3.0916380000    -2.9507810000    -2.4534530000 
 C        2.5132050000    -2.2729000000    -3.5939800000 
 H        0.6347110000     1.1053370000     0.0019570000 
 H        0.8235440000     0.0761410000    -1.4221990000 
 H        2.1386730000     1.1399810000    -0.9210520000 
 H        1.0964230000    -1.2503700000     0.6987400000 
 H        2.3963760000    -0.1919300000     1.1999780000 
 H        3.7482550000    -0.9775000000    -0.8438570000 
 H        2.6280270000    -3.2684030000     0.9052830000 
 H        4.1917670000    -3.2617510000    -0.0446800000 
 H        1.3470880000    -2.8544080000    -1.1859330000 
 H        3.1158650000    -3.9501700000    -2.6124280000 
 H        2.6304590000    -1.1930410000    -3.4717090000 
 H        1.4393380000    -2.4759310000    -3.7389320000 
 H        3.0419160000    -2.5645660000    -4.5038260000 
*
