! RI PBE def2-SVP def2-SVP/J NBO PAL2
% maxcore 2000
% output
    # printlevel mini
    print[ P_Basis ] 0
    print[ P_SCFInfo ] 1
    print[ P_SCFIterInfo ] 1
    print[ P_OrbEn ] 0
    print[ P_Cartesian ] 0
end
*xyz 0 1
 C        2.7181980000    -1.4951060000    -0.4223810000 
 C        2.1063860000    -0.1159360000    -0.2435320000 
 C        2.9083080000     0.7762740000     0.6768680000 
 C        4.0909830000     1.4818530000     0.1043090000 
 C        2.8519830000     2.2659010000     0.4477970000 
 N        3.0319370000     0.2729970000     2.0176700000 
 C        1.8639030000     0.4669320000     2.8506590000 
 H        2.0945230000    -2.1238090000    -1.0622270000 
 H        2.8332510000    -1.9906750000     0.5430050000 
 H        3.7090840000    -1.4289440000    -0.8798480000 
 H        1.0864220000    -0.2100340000     0.1467960000 
 H        2.0100650000     0.3845010000    -1.2121610000 
 H        4.3235540000     1.3199360000    -0.9417290000 
 H        4.9640480000     1.6145990000     0.7341730000 
 H        2.2470140000     2.6534230000    -0.3637990000 
 H        2.8959290000     2.9075730000     1.3203740000 
 H        3.8512410000     0.6620210000     2.4621890000 
 H        1.0326700000    -0.1379790000     2.4799420000 
 H        1.5178380000     1.5115980000     2.9001730000 
 H        2.0825440000     0.1269650000     3.8648020000 
*
