! RI PBE def2-SVP def2-SVP/J NBO PAL2
% maxcore 2000
% output
    # printlevel mini
    print[ P_Basis ] 0
    print[ P_SCFInfo ] 1
    print[ P_SCFIterInfo ] 1
    print[ P_OrbEn ] 0
    print[ P_Cartesian ] 0
end
*xyz 0 1
 C        3.1672750000    -1.2980600000    -0.3172380000 
 C        2.5488040000     0.0442620000     0.0423100000 
 C        3.0637960000     1.1934210000    -0.7953160000 
 C        2.6289310000     2.6316850000    -0.4527870000 
 C        4.0394570000     3.1117860000    -0.8379190000 
 C        4.5365300000     1.6727670000    -0.6437340000 
 N        5.6108520000     1.2323720000    -1.4954410000 
 H        2.7568760000    -2.1040770000     0.2954370000 
 H        4.2499680000    -1.2919370000    -0.1650110000 
 H        2.9830100000    -1.5506340000    -1.3652680000 
 H        2.7407200000     0.2660330000     1.0994260000 
 H        1.4586460000    -0.0164120000    -0.0591540000 
 H        2.8751530000     0.9989620000    -1.8598310000 
 H        2.4465350000     2.7400190000     0.6198850000 
 H        1.7799050000     3.0515680000    -0.9936060000 
 H        4.5088370000     3.9015230000    -0.2499760000 
 H        4.0873460000     3.3883310000    -1.8952950000 
 H        4.8471170000     1.5283350000     0.3980180000 
 H        5.3380990000     1.2826070000    -2.4699800000 
 H        5.8710330000     0.2734390000    -1.3028290000 
*
