! RI PBE def2-SVP def2-SVP/J NBO PAL2
% maxcore 2000
% output
    # printlevel mini
    print[ P_Basis ] 0
    print[ P_SCFInfo ] 1
    print[ P_SCFIterInfo ] 1
    print[ P_OrbEn ] 0
    print[ P_Cartesian ] 0
end
*xyz 0 1
 C        3.3378370000    -0.0169200000     1.2802970000 
 C        2.3749720000     0.1792050000     0.1185450000 
 C        2.9765780000     1.0004270000    -0.9897800000 
 C        2.1436870000     1.7219500000    -2.0248180000 
 C        0.6420790000     1.6606070000    -2.0630770000 
 C        2.8811510000     2.5057210000    -0.9917920000 
 N        3.9461270000     3.3866100000    -1.3768220000 
 H        2.8887400000    -0.6156600000     2.0763180000 
 H        3.6339910000     0.9439200000     1.7098150000 
 H        4.2486800000    -0.5272480000     0.9547830000 
 H        1.4630470000     0.6614090000     0.4837410000 
 H        2.0636680000    -0.7985060000    -0.2683840000 
 H        3.9184510000     0.6088520000    -1.3694620000 
 H        2.6014180000     1.7505170000    -3.0115440000 
 H        0.2929490000     0.7509240000    -2.5600110000 
 H        0.2082480000     1.6764390000    -1.0618940000 
 H        0.2347970000     2.5158560000    -2.6089760000 
 H        2.2570820000     2.9216550000    -0.2029900000 
 H        4.3189590000     3.1270540000    -2.2807750000 
 H        4.7101400000     3.3463660000    -0.7127930000 
*
