! RI PBE def2-SVP def2-SVP/J NBO PAL2
% maxcore 2000
% output
    # printlevel mini
    print[ P_Basis ] 0
    print[ P_SCFInfo ] 1
    print[ P_SCFIterInfo ] 1
    print[ P_OrbEn ] 0
    print[ P_Cartesian ] 0
end
*xyz 0 1
 C        3.3828950000     0.0607570000    -1.1660060000 
 C        2.5265690000    -0.0350210000     0.0857770000 
 C        2.9584810000    -1.1269250000     1.0436950000 
 C        2.1662620000    -1.1719700000     2.3602120000 
 C        2.2513770000    -2.6400760000     2.8103670000 
 C        2.9144780000    -3.3616060000     1.6151500000 
 N        2.8362650000    -2.4644180000     0.4689620000 
 H        3.0219710000     0.8465300000    -1.8337810000 
 H        3.3832210000    -0.8827070000    -1.7146080000 
 H        4.4209300000     0.2916450000    -0.9114130000 
 H        1.4770310000    -0.2093520000    -0.1876120000 
 H        2.5413960000     0.9201950000     0.6214090000 
 H        4.0228480000    -0.9833640000     1.2813340000 
 H        1.1277330000    -0.8854830000     2.1635910000 
 H        2.5562590000    -0.4745520000     3.1050780000 
 H        1.2592010000    -3.0466640000     3.0176380000 
 H        2.8396490000    -2.7579310000     3.7229650000 
 H        2.4561660000    -4.3240450000     1.3811210000 
 H        3.9707150000    -3.5521170000     1.8318730000 
 H        1.9143640000    -2.5438960000     0.0485480000 
*
