! RI PBE def2-SVP def2-SVP/J NBO PAL2
% maxcore 2000
% output
    # printlevel mini
    print[ P_Basis ] 0
    print[ P_SCFInfo ] 1
    print[ P_SCFIterInfo ] 1
    print[ P_OrbEn ] 0
    print[ P_Cartesian ] 0
end
*xyz 0 1
 C        1.2433950000    -0.1337600000     0.8023410000 
 C        2.3258850000     0.0314500000     0.3064440000 
 C        3.6533850000     0.1896770000    -0.2995970000 
 C        4.4506600000     1.3411530000     0.3402170000 
 C        5.3136050000     0.6643980000     1.4238350000 
 C        4.9984090000    -0.8281250000     1.2983900000 
 N        4.5332890000    -0.9526700000    -0.0766200000 
 H        0.2830480000    -0.2739910000     1.2393720000 
 H        3.5195250000     0.3498020000    -1.3738120000 
 H        3.7886860000     2.1092580000     0.7385460000 
 H        5.0794970000     1.8020580000    -0.4222600000 
 H        5.0876180000     1.0353010000     2.4241360000 
 H        6.3718010000     0.8515010000     1.2360450000 
 H        4.2280650000    -1.1126070000     2.0306180000 
 H        5.8715120000    -1.4633060000     1.4625600000 
 H        4.0576310000    -1.8301360000    -0.2455940000 
*
