! RI PBE def2-SVP def2-SVP/J NBO PAL2
% maxcore 2000
% output
    # printlevel mini
    print[ P_Basis ] 0
    print[ P_SCFInfo ] 1
    print[ P_SCFIterInfo ] 1
    print[ P_OrbEn ] 0
    print[ P_Cartesian ] 0
end
*xyz 0 1
 C        0.7744820000     0.5456020000    -0.2106160000 
 C        2.2098670000     0.1719180000     0.1201210000 
 C        3.1495020000     1.3142090000     0.5077940000 
 C        4.5270090000     0.7602680000     0.8139280000 
 C        3.1205390000     2.5325980000    -0.4477850000 
 C        2.3018270000     3.2577480000     0.6287870000 
 N        2.6430520000     2.1968030000     1.5894900000 
 H        0.1895670000    -0.3488870000    -0.4358520000 
 H        0.7110260000     1.2024220000    -1.0813540000 
 H        0.2813460000     1.0506710000     0.6243200000 
 H        2.6540890000    -0.3535840000    -0.7332830000 
 H        2.2109630000    -0.5492170000     0.9475880000 
 H        4.9522400000     0.2585030000    -0.0605720000 
 H        4.4780230000     0.0346430000     1.6312000000 
 H        5.1985160000     1.5645540000     1.1185660000 
 H        2.6416400000     2.3859920000    -1.4161000000 
 H        4.1099800000     2.9635120000    -0.6048100000 
 H        1.2368130000     3.3257940000     0.3798030000 
 H        2.6512780000     4.2506840000     0.9252810000 
 H        1.8666420000     1.8247680000     2.1224070000 
*
