! RI PBE def2-SVP def2-SVP/J NBO PAL2
% maxcore 2000
% output
    # printlevel mini
    print[ P_Basis ] 0
    print[ P_SCFInfo ] 1
    print[ P_SCFIterInfo ] 1
    print[ P_OrbEn ] 0
    print[ P_Cartesian ] 0
end
*xyz 0 1
 C        1.7486280000     1.7691350000    -1.0033310000 
 C        1.9296400000     0.7798850000     0.1339150000 
 C        3.2794800000     0.8089590000     0.8208760000 
 C        3.4369030000    -0.1741980000     1.9599200000 
 C        2.5211450000     0.0767970000     3.1490110000 
 C        4.0943250000     2.0408100000     0.8791750000 
 N        4.4249230000     0.9779940000    -0.0713300000 
 H        0.8091160000     1.5799020000    -1.5269420000 
 H        2.5655570000     1.6859760000    -1.7218780000 
 H        1.7155080000     2.7997030000    -0.6419000000 
 H        1.7828160000    -0.2393580000    -0.2453930000 
 H        1.1492010000     0.9395740000     0.8849610000 
 H        4.4794430000    -0.1400500000     2.2979880000 
 H        3.2701840000    -1.1880160000     1.5751350000 
 H        2.7338940000    -0.6269580000     3.9569370000 
 H        2.6556500000     1.0880040000     3.5419470000 
 H        1.4686440000    -0.0406340000     2.8836120000 
 H        4.7335780000     2.1781560000     1.7468870000 
 H        3.7440060000     2.9619130000     0.4272800000 
 H        5.2138490000     0.4374960000     0.2680210000 
*
