! RI PBE def2-SVP def2-SVP/J NBO PAL2
% maxcore 2000
% output
    # printlevel mini
    print[ P_Basis ] 0
    print[ P_SCFInfo ] 1
    print[ P_SCFIterInfo ] 1
    print[ P_OrbEn ] 0
    print[ P_Cartesian ] 0
end
*xyz 0 1
 C        2.6532630000    -1.3904270000     0.4173520000 
 C        2.3998010000    -0.1381330000     0.0320640000 
 C        2.9846480000     0.5749070000    -1.0743640000 
 C        2.7468840000     1.8683030000    -1.5005680000 
 C        3.5607810000     2.1127880000    -2.6263220000 
 C        4.2765100000     0.9644410000    -2.8620860000 
 N        3.9209950000     0.0478240000    -1.9222570000 
 H        2.1484850000    -1.8232440000     1.2710930000 
 H        3.3650300000    -2.0311200000    -0.0935420000 
 H        1.6735470000     0.4424440000     0.5940020000 
 H        2.0542510000     2.5542390000    -1.0370680000 
 H        3.6205650000     3.0225480000    -3.2023900000 
 H        5.0059620000     0.7325810000    -3.6216810000 
 H        4.2907880000    -0.8826500000    -1.8578220000 
*
