! RI PBE def2-SVP def2-SVP/J NBO PAL2
% maxcore 2000
% output
    # printlevel mini
    print[ P_Basis ] 0
    print[ P_SCFInfo ] 1
    print[ P_SCFIterInfo ] 1
    print[ P_OrbEn ] 0
    print[ P_Cartesian ] 0
end
*xyz 0 1
 C        1.0437660000    -0.0551510000     0.0480580000 
 C        2.2463290000     0.0080250000     0.0514120000 
 C        3.6524270000     0.0732840000     0.0552610000 
 C        4.5090880000     1.1579200000     0.0575270000 
 C        5.8261800000     0.6580530000     0.0611790000 
 C        5.7446540000    -0.7145050000     0.0610520000 
 N        4.4316520000    -1.0559410000     0.0574730000 
 H       -0.0191950000    -0.1021480000     0.0450500000 
 H        4.1980740000     2.1903060000     0.0565990000 
 H        6.7373250000     1.2349890000     0.0636370000 
 H        6.5176560000    -1.4660360000     0.0632260000 
 H        4.0659240000    -1.9909950000     0.0565360000 
*
