! RI PBE def2-SVP def2-SVP/J NBO PAL2
% maxcore 2000
% output
    # printlevel mini
    print[ P_Basis ] 0
    print[ P_SCFInfo ] 1
    print[ P_SCFIterInfo ] 1
    print[ P_OrbEn ] 0
    print[ P_Cartesian ] 0
end
*xyz 0 1
 C        3.3893210000     0.1580660000    -1.1717660000 
 C        2.5699810000    -0.0634680000     0.0975330000 
 C        2.9817000000    -1.2584020000     0.8845080000 
 C        3.5881790000    -1.3633040000     2.1131780000 
 C        3.7779310000    -2.7407330000     2.3910190000 
 C        3.2817670000    -3.4403860000     1.3236950000 
 N        2.8055030000    -2.5327360000     0.4206770000 
 H        3.0540690000     1.0522600000    -1.7028280000 
 H        3.3010620000    -0.6866190000    -1.8600510000 
 H        4.4480500000     0.2776220000    -0.9328250000 
 H        1.5066380000    -0.1341580000    -0.1635510000 
 H        2.6618940000     0.8088650000     0.7487730000 
 H        3.8632840000    -0.5313310000     2.7437440000 
 H        4.2253270000    -3.1697190000     3.2739220000 
 H        3.2265790000    -4.5005300000     1.1356420000 
 H        2.3748060000    -2.7679270000    -0.4549590000 
*
