! RI PBE def2-SVP def2-SVP/J NBO PAL2
% maxcore 2000
% output
    # printlevel mini
    print[ P_Basis ] 0
    print[ P_SCFInfo ] 1
    print[ P_SCFIterInfo ] 1
    print[ P_OrbEn ] 0
    print[ P_Cartesian ] 0
end
*xyz 0 1
 C        3.3321370000    -0.4366800000    -1.2162100000 
 C        2.4590100000     0.0834790000    -0.0891220000 
 C        2.8647920000    -0.3354740000     1.3112040000 
 C        1.8928490000     0.1375000000     2.3632510000 
 C        3.6193800000    -1.5920660000     1.5541340000 
 N        4.2975560000    -0.3130130000     1.5660590000 
 C        4.8214770000     0.1671520000     2.8218350000 
 H        3.0501620000     0.0261230000    -2.1643340000 
 H        3.2309000000    -1.5176930000    -1.3391240000 
 H        4.3828070000    -0.2135800000    -1.0231820000 
 H        1.4198640000    -0.2267530000    -0.2496030000 
 H        2.4521350000     1.1805450000    -0.1101400000 
 H        0.8943820000    -0.2506010000     2.1465500000 
 H        1.8260850000     1.2301540000     2.3662790000 
 H        2.1601880000    -0.1901090000     3.3676400000 
 H        3.8791680000    -2.2647030000     0.7428280000 
 H        3.4541310000    -2.0816320000     2.5130080000 
 H        5.8514800000    -0.1828880000     2.9260240000 
 H        4.2644930000    -0.1670770000     3.7082340000 
 H        4.8403050000     1.2598460000     2.8195700000 
*
