! RI PBE def2-SVP def2-SVP/J NBO PAL2
% maxcore 2000
% output
    # printlevel mini
    print[ P_Basis ] 0
    print[ P_SCFInfo ] 1
    print[ P_SCFIterInfo ] 1
    print[ P_OrbEn ] 0
    print[ P_Cartesian ] 0
end
*xyz 0 1
 C        2.3993030000    -0.7704930000    -0.7396230000 
 C        2.0662180000     0.2716300000     0.0103050000 
 C        2.9899950000     1.3506560000     0.4562950000 
 C        2.5554150000     2.7602270000     0.0282370000 
 C        3.0881340000     3.6368180000     1.1573530000 
 N        2.8751590000     2.8674760000     2.3760920000 
 C        3.0982300000     1.4696880000     2.0086770000 
 H        1.6730630000    -1.5239650000    -1.0214790000 
 H        3.4146500000    -0.9052520000    -1.1001500000 
 H        1.0342370000     0.3691930000     0.3497930000 
 H        3.9846270000     1.1464780000     0.0476890000 
 H        1.4617790000     2.8232970000    -0.0013540000 
 H        2.9289530000     3.0268870000    -0.9627570000 
 H        2.6055270000     4.6136040000     1.2264010000 
 H        4.1629750000     3.8103560000     1.0255000000 
 H        1.9141990000     2.9862780000     2.6702830000 
 H        2.3794380000     0.8234600000     2.5182260000 
 H        4.0947990000     1.1511510000     2.3289110000 
*
