! RI PBE def2-SVP def2-SVP/J NBO PAL2
% maxcore 2000
% output
    # printlevel mini
    print[ P_Basis ] 0
    print[ P_SCFInfo ] 1
    print[ P_SCFIterInfo ] 1
    print[ P_OrbEn ] 0
    print[ P_Cartesian ] 0
end
*xyz 0 1
 C        2.7167330000     0.9857530000    -0.3507840000 
 C        2.2114770000    -0.2269740000    -0.1234810000 
 C        2.9276780000    -1.3196000000     0.4959400000 
 C        2.4612530000    -2.5536550000     0.7053880000 
 C        3.4895460000    -3.4235180000     1.3414170000 
 N        4.5446700000    -2.4811150000     1.7025570000 
 C        4.3474510000    -1.2287610000     0.9778410000 
 H        2.1274550000     1.7614700000    -0.8241310000 
 H        3.7328540000     1.2427380000    -0.0721600000 
 H        1.1870880000    -0.4388440000    -0.4206370000 
 H        1.4698580000    -2.9010210000     0.4405120000 
 H        3.8197920000    -4.2070670000     0.6375880000 
 H        3.1016790000    -3.9459950000     2.2261070000 
 H        5.4676640000    -2.8634130000     1.5696840000 
 H        5.0289990000    -1.1012770000     0.1204260000 
 H        4.5001820000    -0.3633120000     1.6349430000 
*
