! RI PBE def2-SVP def2-SVP/J NBO PAL2
% maxcore 2000
% output
    # printlevel mini
    print[ P_Basis ] 0
    print[ P_SCFInfo ] 1
    print[ P_SCFIterInfo ] 1
    print[ P_OrbEn ] 0
    print[ P_Cartesian ] 0
end
*xyz 0 1
 C        1.2189580000    -0.1156230000     0.7657930000 
 C        2.3246360000    -0.0665300000     0.2971360000 
 C        3.6752140000    -0.0228920000    -0.2412780000 
 C        4.5027020000     1.1408710000     0.3481660000 
 C        5.3382050000     0.4886660000     1.4803490000 
 N        4.9773570000    -0.9263970000     1.5439470000 
 C        4.4923350000    -1.2516730000     0.2177860000 
 H        0.2347880000    -0.1543630000     1.1688490000 
 H        3.6168800000     0.0402890000    -1.3318620000 
 H        3.8581150000     1.9416460000     0.7098010000 
 H        5.1512830000     1.5619680000    -0.4225170000 
 H        5.1757360000     0.9617660000     2.4497220000 
 H        6.4049810000     0.5768900000     1.2533060000 
 H        4.2165210000    -1.0477560000     2.2020730000 
 H        3.9154970000    -2.1765250000     0.2187840000 
 H        5.3457230000    -1.3787360000    -0.4581350000 
*
