! RI PBE def2-SVP def2-SVP/J NBO PAL2
% maxcore 2000
% output
    # printlevel mini
    print[ P_Basis ] 0
    print[ P_SCFInfo ] 1
    print[ P_SCFIterInfo ] 1
    print[ P_OrbEn ] 0
    print[ P_Cartesian ] 0
end
*xyz 0 1
 C        0.9665140000     0.1169340000    -0.1511240000 
 C        2.4441470000    -0.0871770000    -0.1501650000 
 C        3.1042410000    -1.0115790000    -0.8382490000 
 C        2.5295790000    -2.0383040000    -1.7856740000 
 C        3.7562380000    -2.8790620000    -2.1732810000 
 N        4.9214270000    -2.0140420000    -2.0138410000 
 C        4.6069290000    -1.2087940000    -0.8363320000 
 H        0.7084250000     1.1327780000    -0.4686970000 
 H        0.5483540000    -0.0098100000     0.8532710000 
 H        0.4571870000    -0.5819360000    -0.8162640000 
 H        3.0197340000     0.5923180000     0.4769250000 
 H        2.1058800000    -1.5483460000    -2.6697840000 
 H        1.7303450000    -2.6329570000    -1.3354100000 
 H        3.7086190000    -3.2823100000    -3.1858800000 
 H        3.8602460000    -3.7268170000    -1.4871640000 
 H        4.9786570000    -1.3990090000    -2.8180460000 
 H        5.1661310000    -0.2714090000    -0.8367450000 
 H        4.9105480000    -1.7676790000     0.0585520000 
*
