! RI PBE def2-SVP def2-SVP/J NBO PAL2
% maxcore 2000
% output
    # printlevel mini
    print[ P_Basis ] 0
    print[ P_SCFInfo ] 1
    print[ P_SCFIterInfo ] 1
    print[ P_OrbEn ] 0
    print[ P_Cartesian ] 0
end
*xyz 0 1
 C        1.0506960000     0.1645800000     0.0058450000 
 C        2.5436570000    -0.1163000000     0.0514950000 
 C        3.0023180000    -1.0696410000    -1.0296080000 
 C        4.4674960000    -1.5553340000    -1.0130810000 
 C        3.9906300000    -2.9773320000    -1.3668580000 
 N        4.2173870000    -3.2993210000    -2.7611830000 
 C        2.5586180000    -2.5477100000    -0.9487990000 
 H        0.7437730000     0.8394490000     0.8081430000 
 H        0.4730620000    -0.7581890000     0.1093510000 
 H        0.7657400000     0.6264340000    -0.9438350000 
 H        2.8109820000    -0.5390280000     1.0280850000 
 H        3.1006060000     0.8241190000    -0.0361420000 
 H        2.7492100000    -0.6493170000    -2.0097650000 
 H        4.8938820000    -1.5045110000    -0.0078860000 
 H        5.1702990000    -1.1002270000    -1.7140580000 
 H        4.4243050000    -3.7813010000    -0.7673880000 
 H        3.8591250000    -2.5645090000    -3.3610500000 
 H        3.7266540000    -4.1493120000    -3.0139540000 
 H        2.3304990000    -2.8368690000     0.0820900000 
 H        1.7409620000    -2.8779800000    -1.5941020000 
*
