! RI PBE def2-SVP def2-SVP/J NBO PAL2
% maxcore 2000
% output
    # printlevel mini
    print[ P_Basis ] 0
    print[ P_SCFInfo ] 1
    print[ P_SCFIterInfo ] 1
    print[ P_OrbEn ] 0
    print[ P_Cartesian ] 0
end
*xyz 0 1
 C        0.8952600000     0.0996150000     0.0689200000 
 C        2.0986670000     0.0857430000     0.0716010000 
 C        3.5116740000     0.0545000000     0.0757370000 
 C        4.3507720000     1.1504110000     0.0785400000 
 N        5.6282300000     0.6934110000     0.0820960000 
 C        5.6410770000    -0.6723710000     0.0817240000 
 C        4.3441550000    -1.1030940000     0.0778430000 
 H       -0.1683930000     0.1130880000     0.0671170000 
 H        4.1180800000     2.2024920000     0.0781850000 
 H        6.4444800000     1.2770890000     0.0846380000 
 H        6.5670200000    -1.2239400000     0.0842400000 
 H        4.0063980000    -2.1267540000     0.0765580000 
*
