! RI PBE def2-SVP def2-SVP/J NBO PAL2
% maxcore 2000
% output
    # printlevel mini
    print[ P_Basis ] 0
    print[ P_SCFInfo ] 1
    print[ P_SCFIterInfo ] 1
    print[ P_OrbEn ] 0
    print[ P_Cartesian ] 0
end
*xyz 0 1
 C        1.9887440000    -0.7025770000    -1.3264580000 
 C        2.3453820000    -0.0340190000    -0.0025840000 
 C        2.9300720000     1.3312510000    -0.1647260000 
 C        2.3500970000     2.5189690000     0.2081960000 
 N        3.1974080000     3.5353590000    -0.1286450000 
 C        4.3169020000     3.0256380000    -0.7129890000 
 C        4.1822190000     1.6621320000    -0.7519210000 
 H        1.5766960000    -1.7022830000    -1.1659810000 
 H        2.8688650000    -0.8010210000    -1.9662950000 
 H        1.2498520000    -0.1120980000    -1.8732410000 
 H        3.0503010000    -0.6721620000     0.5422000000 
 H        1.4511260000     0.0328900000     0.6245960000 
 H        1.4036980000     2.7127180000     0.6886720000 
 H        3.0244420000     4.5093010000     0.0362550000 
 H        5.1160410000     3.6663950000    -1.0496840000 
 H        4.9073750000     0.9710970000    -1.1550050000 
*
