! RI PBE def2-SVP def2-SVP/J NBO PAL2
% maxcore 2000
% output
    # printlevel mini
    print[ P_Basis ] 0
    print[ P_SCFInfo ] 1
    print[ P_SCFIterInfo ] 1
    print[ P_OrbEn ] 0
    print[ P_Cartesian ] 0
end
*xyz 0 1
 C        1.0280580000     0.0412550000    -0.0603120000 
 C        2.2291500000     0.0135570000    -0.0630350000 
 C        3.6443970000    -0.0652440000    -0.0661120000 
 N        4.4028270000     1.0307810000    -0.0710230000 
 N        5.6466010000     0.5708120000    -0.0726070000 
 C        5.7279020000    -0.7755100000    -0.0689390000 
 C        4.4372580000    -1.2353840000    -0.0646090000 
 H       -0.0353810000     0.0783890000    -0.0579400000 
 H        6.4056090000     1.2293200000    -0.0762640000 
 H        6.6743660000    -1.2921770000    -0.0696670000 
 H        4.0989140000    -2.2576080000    -0.0608910000 
*
