! RI PBE def2-SVP def2-SVP/J NBO PAL2
% maxcore 2000
% output
    # printlevel mini
    print[ P_Basis ] 0
    print[ P_SCFInfo ] 1
    print[ P_SCFIterInfo ] 1
    print[ P_OrbEn ] 0
    print[ P_Cartesian ] 0
end
*xyz 0 1
 C        2.6908500000     1.2774240000     0.4012770000 
 C        2.2545730000     0.0270810000     0.3476000000 
 C        2.9008740000    -1.0553530000    -0.4441130000 
 C        3.3514700000    -2.2810600000     0.3616920000 
 C        3.1291950000    -3.3556360000    -0.6634300000 
 N        2.3674390000    -2.9881420000    -1.6148800000 
 N        1.9648240000    -1.6908320000    -1.3836770000 
 H        2.1896290000     2.0288800000     0.9997900000 
 H        3.5701170000     1.5937500000    -0.1518200000 
 H        1.3654910000    -0.2683860000     0.9005570000 
 H        3.7687420000    -0.6458820000    -0.9845530000 
 H        2.6995480000    -2.4449130000     1.2303180000 
 H        4.3762890000    -2.2033060000     0.7244900000 
 H        3.4929720000    -4.3741200000    -0.6145230000 
 H        1.8191570000    -1.1997120000    -2.2538080000 
*
