! RI PBE def2-SVP def2-SVP/J NBO PAL2
% maxcore 2000
% output
    # printlevel mini
    print[ P_Basis ] 0
    print[ P_SCFInfo ] 1
    print[ P_SCFIterInfo ] 1
    print[ P_OrbEn ] 0
    print[ P_Cartesian ] 0
end
*xyz 0 1
 C        1.6525910000     0.8134580000    -1.0792760000 
 C        2.4263200000     0.0773370000     0.0017350000 
 C        2.9042720000    -1.2950800000    -0.4293060000 
 C        3.6379050000    -2.1018190000     0.6449930000 
 C        3.1982250000    -3.4888110000     0.2796310000 
 N        2.1929630000    -3.5077110000    -0.5019340000 
 N        1.7997100000    -2.2097740000    -0.7530990000 
 H        1.3581750000     1.8105920000    -0.7455270000 
 H        0.7392940000     0.2754640000    -1.3454670000 
 H        2.2525100000     0.9326810000    -1.9865320000 
 H        1.8014990000    -0.0414220000     0.8929370000 
 H        3.2986090000     0.6690080000     0.3002270000 
 H        3.5657600000    -1.1878940000    -1.3057760000 
 H        3.2773910000    -1.8399030000     1.6496610000 
 H        4.7192910000    -1.9600320000     0.6344730000 
 H        3.6097590000    -4.4144640000     0.6618090000 
 H        1.4275350000    -2.1383410000    -1.6886570000 
*
