! RI PBE def2-SVP def2-SVP/J NBO PAL2
% maxcore 2000
% output
    # printlevel mini
    print[ P_Basis ] 0
    print[ P_SCFInfo ] 1
    print[ P_SCFIterInfo ] 1
    print[ P_OrbEn ] 0
    print[ P_Cartesian ] 0
end
*xyz 0 1
 C        1.1778700000     0.1140520000    -0.5360870000 
 C        2.6114320000    -0.3923500000    -0.5441110000 
 C        2.8850340000    -1.3609660000     0.5707930000 
 C        2.6497800000    -2.8173150000     0.4332800000 
 N        3.9950940000    -2.2789490000     0.4270480000 
 C        4.7835760000    -2.5253230000     1.6184440000 
 C        5.8900740000    -1.5012160000     1.7584250000 
 H        1.0023630000     0.8199080000    -1.3507650000 
 H        0.9422590000     0.6260930000     0.4011030000 
 H        0.4686800000    -0.7103740000    -0.6479990000 
 H        3.3066360000     0.4509740000    -0.4630780000 
 H        2.8379070000    -0.8879580000    -1.4925750000 
 H        2.7273140000    -0.9638620000     1.5758730000 
 H        2.2985750000    -3.2240320000    -0.5104250000 
 H        2.3280110000    -3.3634860000     1.3174820000 
 H        5.2100800000    -3.5301310000     1.5328670000 
 H        4.1517520000    -2.5220620000     2.5241950000 
 H        6.5353200000    -1.5116920000     0.8778720000 
 H        6.5014870000    -1.7092240000     2.6394380000 
 H        5.4793680000    -0.4936750000     1.8636100000 
*
