! RI PBE def2-SVP def2-SVP/J NBO PAL2
% maxcore 2000
% output
    # printlevel mini
    print[ P_Basis ] 0
    print[ P_SCFInfo ] 1
    print[ P_SCFIterInfo ] 1
    print[ P_OrbEn ] 0
    print[ P_Cartesian ] 0
end
*xyz 0 1
 C        1.5152140000    -0.3887500000     0.9232540000 
 C        1.7462740000    -0.3297150000    -0.3797160000 
 C        2.9684230000    -0.8239270000    -1.0563610000 
 C        3.7744340000    -1.9446750000    -0.5021850000 
 N        3.0133330000    -2.1213570000    -1.7135500000 
 C        1.9482900000    -3.0056370000    -1.8062860000 
 N        0.7942060000    -2.7964840000    -2.2777540000 
 H        0.6049000000     0.0163030000     1.3494490000 
 H        2.2221660000    -0.8383040000     1.6121280000 
 H        1.0134790000     0.1523370000    -1.0230350000 
 H        3.5029370000    -0.0591340000    -1.6175490000 
 H        3.4005010000    -2.4243010000     0.3977490000 
 H        4.8540990000    -1.9403540000    -0.6113080000 
 H        2.2138720000    -4.0185780000    -1.4933720000 
 H        0.6787630000    -1.8194360000    -2.5468840000 
*
