! RI PBE def2-SVP def2-SVP/J NBO PAL2
% maxcore 2000
% output
    # printlevel mini
    print[ P_Basis ] 0
    print[ P_SCFInfo ] 1
    print[ P_SCFIterInfo ] 1
    print[ P_OrbEn ] 0
    print[ P_Cartesian ] 0
end
*xyz 0 1
 C        1.5113920000    -0.1459950000     1.8639270000 
 C        2.2507650000    -0.2922940000     0.5432760000 
 C        2.4896920000    -1.7296550000     0.1841790000 
 C        1.5477580000    -2.5198250000    -0.6188200000 
 N        2.7858610000    -2.0228930000    -1.2263010000 
 C        3.7851740000    -3.0021270000    -1.4243050000 
 N        4.7099460000    -2.9227650000    -2.2712210000 
 H        1.3502370000     0.9057500000     2.1083040000 
 H        2.0744310000    -0.5936890000     2.6873370000 
 H        0.5344870000    -0.6348400000     1.8269300000 
 H        3.2146950000     0.2249540000     0.5927960000 
 H        1.6876680000     0.1774350000    -0.2680330000 
 H        3.0723450000    -2.2975820000     0.9097710000 
 H        0.6462300000    -2.0598270000    -1.0088740000 
 H        1.4765540000    -3.5875290000    -0.4285890000 
 H        3.7340340000    -3.8905720000    -0.7785490000 
 H        4.6159310000    -2.0503470000    -2.7954180000 
*
