! RI PBE def2-SVP def2-SVP/J NBO PAL2
% maxcore 2000
% output
    # printlevel mini
    print[ P_Basis ] 0
    print[ P_SCFInfo ] 1
    print[ P_SCFIterInfo ] 1
    print[ P_OrbEn ] 0
    print[ P_Cartesian ] 0
end
*xyz 0 1
 C        1.8129590000    -1.0699620000    -1.0350800000 
 C        1.7647370000     0.1489370000    -0.5134490000 
 C        2.8081910000     1.1630410000    -0.7047110000 
 C        2.5146690000     2.6049940000    -0.8074470000 
 N        3.0533920000     2.0735250000     0.4396620000 
 N        4.4397380000     2.3554580000     0.5353390000 
 C        4.8385760000     2.3842100000     1.7324160000 
 H        1.0130890000    -1.7836820000    -0.8796430000 
 H        2.6540300000    -1.3947710000    -1.6394160000 
 H        0.9151820000     0.4519930000     0.0934060000 
 H        3.7083700000     0.8366320000    -1.2165630000 
 H        1.4930970000     2.9605560000    -0.7353330000 
 H        3.1905440000     3.2040410000    -1.4072890000 
 H        5.8906350000     2.5892560000     1.9089620000 
 H        4.1683940000     2.2127710000     2.5764380000 
*
