! RI PBE def2-SVP def2-SVP/J NBO PAL2
% maxcore 2000
% output
    # printlevel mini
    print[ P_Basis ] 0
    print[ P_SCFInfo ] 1
    print[ P_SCFIterInfo ] 1
    print[ P_OrbEn ] 0
    print[ P_Cartesian ] 0
end
*xyz 0 1
 C        0.9626850000     0.2695740000     0.1088330000 
 C        2.4669070000     0.0474480000     0.0933860000 
 C        2.9349200000    -0.8301980000    -1.0442630000 
 C        4.4055890000    -1.2755720000    -1.0821970000 
 N        3.9640570000    -2.6034660000    -1.5326980000 
 C        2.5992580000    -2.3392020000    -1.0394120000 
 C        1.4881580000    -2.8696620000    -1.9107610000 
 H        0.6656230000     0.9249560000     0.9307000000 
 H        0.4230530000    -0.6735840000     0.2282510000 
 H        0.6215110000     0.7287060000    -0.8231140000 
 H        2.7832690000    -0.3998060000     1.0432450000 
 H        2.9791680000     1.0147530000     0.0290580000 
 H        2.6436850000    -0.3949300000    -2.0062610000 
 H        4.8481130000    -1.2644090000    -0.0758310000 
 H        5.0821980000    -0.7598710000    -1.7692940000 
 H        4.4394110000    -3.3921220000    -1.1126530000 
 H        2.4542810000    -2.6756220000     0.0005840000 
 H        1.6160600000    -2.5219040000    -2.9382870000 
 H        0.5101670000    -2.5422150000    -1.5475740000 
 H        1.4917870000    -3.9633830000    -1.9234220000 
*
