! RI PBE def2-SVP def2-SVP/J NBO PAL2
% maxcore 2000
% output
    # printlevel mini
    print[ P_Basis ] 0
    print[ P_SCFInfo ] 1
    print[ P_SCFIterInfo ] 1
    print[ P_OrbEn ] 0
    print[ P_Cartesian ] 0
end
*xyz 0 1
 C        1.3525840000     0.3592400000    -0.0637910000 
 C        2.3713390000     0.1418260000    -1.1723280000 
 C        3.2844480000    -1.0408640000    -0.9452230000 
 C        4.2447420000    -0.8945650000     0.2066250000 
 N        3.7952270000    -1.6617020000    -2.1695790000 
 C        2.8705760000    -2.4164680000    -1.3203520000 
 C        1.5429790000    -2.7933160000    -1.9072020000 
 H        0.7025110000     1.2064580000    -0.2931690000 
 H        1.8316870000     0.5671850000     0.8958340000 
 H        0.7184330000    -0.5214980000     0.0665240000 
 H        2.9950930000     1.0366470000    -1.2860310000 
 H        1.8643250000     0.0108190000    -2.1300330000 
 H        3.7206360000    -0.7417380000     1.1532080000 
 H        4.9059260000    -0.0358740000     0.0507070000 
 H        4.8661960000    -1.7875180000     0.3138140000 
 H        4.7485420000    -1.9820720000    -2.0342420000 
 H        3.3160860000    -3.1989420000    -0.7068500000 
 H        1.1267120000    -1.9839730000    -2.5067390000 
 H        0.8258420000    -3.0500220000    -1.1226860000 
 H        1.6513050000    -3.6640150000    -2.5597080000 
*
