! RI PBE def2-SVP def2-SVP/J NBO PAL2
% maxcore 2000
% output
    # printlevel mini
    print[ P_Basis ] 0
    print[ P_SCFInfo ] 1
    print[ P_SCFIterInfo ] 1
    print[ P_OrbEn ] 0
    print[ P_Cartesian ] 0
end
*xyz 0 1
 C        2.8228950000     1.3138790000     0.1266270000 
 C        2.3451260000    -0.1246270000    -0.0060030000 
 C        2.9379620000    -1.0333140000     1.0334760000 
 C        3.0929000000    -2.5255400000     0.8014940000 
 N        2.7019830000    -3.2076580000    -0.3950900000 
 C        4.2991020000    -1.6557080000     0.8282170000 
 N        5.2879860000    -1.8088730000     1.8536590000 
 H        2.3782960000     1.9559920000    -0.6375990000 
 H        3.9097700000     1.3750530000     0.0261020000 
 H        2.5580930000     1.7283080000     1.1032750000 
 H        2.5945130000    -0.5017640000    -1.0033720000 
 H        1.2504710000    -0.1537720000     0.0585190000 
 H        2.7110030000    -0.7618510000     2.0624230000 
 H        2.9552240000    -3.1312980000     1.6950850000 
 H        3.2429020000    -2.9126760000    -1.1946970000 
 H        1.7220170000    -3.0721630000    -0.6070300000 
 H        4.7308530000    -1.4608090000    -0.1533200000 
 H        4.9469670000    -2.3878220000     2.6086540000 
 H        5.5554570000    -0.9146470000     2.2453190000 
*
