! RI PBE def2-SVP def2-SVP/J NBO PAL2
% maxcore 2000
% output
    # printlevel mini
    print[ P_Basis ] 0
    print[ P_SCFInfo ] 1
    print[ P_SCFIterInfo ] 1
    print[ P_OrbEn ] 0
    print[ P_Cartesian ] 0
end
*xyz 0 1
 C        0.6359890000     0.2327510000     0.3706690000 
 C        2.0587870000     0.1218220000    -0.1542510000 
 C        2.8249370000    -1.0583170000     0.3999640000 
 C        3.0651890000    -1.0623340000     1.8899270000 
 N        3.7933470000     0.1271290000     2.3033140000 
 C        2.6248380000    -2.3911690000    -0.2537620000 
 C        3.9130040000    -1.6461210000    -0.4524980000 
 H        0.1055460000     1.0571810000    -0.1116080000 
 H        0.6213030000     0.4226880000     1.4463520000 
 H        0.0701230000    -0.6843010000     0.1833090000 
 H        2.6067990000     1.0385950000     0.0824800000 
 H        2.0397880000     0.0369860000    -1.2462620000 
 H        3.5695570000    -2.0064670000     2.1521610000 
 H        2.1051980000    -1.0680740000     2.4173300000 
 H        4.7115910000     0.1402760000     1.8752610000 
 H        3.9284680000     0.1381970000     3.3059270000 
 H        1.9363590000    -2.4441450000    -1.0891200000 
 H        2.6437340000    -3.2795870000     0.3671890000 
 H        4.0996880000    -1.1999280000    -1.4222810000 
 H        4.7983550000    -2.0341830000     0.0392100000 
*
