! RI PBE def2-SVP def2-SVP/J NBO PAL2
% maxcore 2000
% output
    # printlevel mini
    print[ P_Basis ] 0
    print[ P_SCFInfo ] 1
    print[ P_SCFIterInfo ] 1
    print[ P_OrbEn ] 0
    print[ P_Cartesian ] 0
end
*xyz 0 1
 C        0.8958640000     0.0139330000     0.1017700000 
 C        2.0963620000     0.0240680000     0.0756340000 
 C        3.5543070000     0.0428510000     0.0468280000 
 C        4.1793500000    -1.1389700000    -0.7550820000 
 N        4.5880490000    -0.5836930000    -2.0392270000 
 C        4.4902840000     0.6757710000    -1.9289150000 
 N        4.0851400000     1.1813020000    -0.7084870000 
 H       -0.1684080000     0.0011190000     0.1197650000 
 H        3.9248970000     0.0615370000     1.0750440000 
 H        3.4750190000    -1.9611050000    -0.8881000000 
 H        5.0589330000    -1.5283990000    -0.2324310000 
 H        4.7485040000     1.3677680000    -2.7252830000 
 H        3.5471090000     2.0346270000    -0.7000150000 
*
