! RI PBE def2-SVP def2-SVP/J NBO PAL2
% maxcore 2000
% output
    # printlevel mini
    print[ P_Basis ] 0
    print[ P_SCFInfo ] 1
    print[ P_SCFIterInfo ] 1
    print[ P_OrbEn ] 0
    print[ P_Cartesian ] 0
end
*xyz 0 1
 C        1.1019620000    -0.0925520000    -0.0391580000 
 C        2.5914650000     0.0409110000    -0.1012720000 
 C        3.2452000000     0.2129060000    -1.2497990000 
 C        2.6934120000     0.3080770000    -2.6561470000 
 N        3.8429600000     0.4958810000    -3.5406170000 
 C        4.8625220000     0.5059550000    -2.7798450000 
 N        4.6174940000     0.3492280000    -1.4391020000 
 H        0.7618830000    -0.2255240000     0.9884190000 
 H        0.7398060000    -0.9527320000    -0.6141220000 
 H        0.5908730000     0.7915320000    -0.4376990000 
 H        3.1525390000    -0.0050930000     0.8269890000 
 H        1.9925850000     1.1443140000    -2.7637330000 
 H        2.1413920000    -0.5957070000    -2.9398490000 
 H        5.8820450000     0.6285970000    -3.1307310000 
 H        5.3092710000     0.3349960000    -0.7129450000 
*
