! RI PBE def2-SVP def2-SVP/J NBO PAL2
% maxcore 2000
% output
    # printlevel mini
    print[ P_Basis ] 0
    print[ P_SCFInfo ] 1
    print[ P_SCFIterInfo ] 1
    print[ P_OrbEn ] 0
    print[ P_Cartesian ] 0
end
*xyz 0 1
 C        3.5481150000    -0.6465410000     0.9652690000 
 C        2.5074450000    -0.2028340000    -0.0483610000 
 C        2.9779600000     0.9190480000    -0.9538610000 
 C        1.9222770000     1.4096950000    -1.9682320000 
 N        2.0402210000     2.8667080000    -2.0238440000 
 C        2.7897410000     3.1859610000    -1.0497700000 
 N        3.2525000000     2.1698510000    -0.2406240000 
 H        3.1820000000    -1.4763080000     1.5735450000 
 H        3.8067790000     0.1679320000     1.6471480000 
 H        4.4667630000    -0.9785790000     0.4722810000 
 H        1.5995910000     0.1293380000     0.4657580000 
 H        2.2202510000    -1.0512510000    -0.6797070000 
 H        3.8853350000     0.5916460000    -1.4840290000 
 H        0.9117940000     1.1474870000    -1.6285680000 
 H        2.0531870000     0.9732490000    -2.9603000000 
 H        3.0427890000     4.2145660000    -0.8066180000 
 H        4.1514400000     2.2901100000     0.1981110000 
*
