! RI PBE def2-SVP def2-SVP/J NBO PAL2
% maxcore 2000
% output
    # printlevel mini
    print[ P_Basis ] 0
    print[ P_SCFInfo ] 1
    print[ P_SCFIterInfo ] 1
    print[ P_OrbEn ] 0
    print[ P_Cartesian ] 0
end
*xyz 0 1
 C        3.5182190000    -0.5495080000    -0.9845470000 
 C        2.4073030000     0.0790730000    -0.1472250000 
 C        2.8055550000     1.3342830000     0.5425090000 
 C        2.4014300000     2.6334910000     0.3987810000 
 N        3.0719380000     3.4594880000     1.2604240000 
 C        3.8782290000     2.6784310000     1.9251110000 
 N        3.7583980000     1.3851220000     1.5300710000 
 H        3.1654710000    -1.4560240000    -1.4814420000 
 H        4.3793360000    -0.8256210000    -0.3702750000 
 H        3.8684680000     0.1464930000    -1.7493690000 
 H        2.0431340000    -0.6515450000     0.5853140000 
 H        1.5537330000     0.3140990000    -0.7874820000 
 H        1.6562200000     3.0138330000    -0.2840420000 
 H        4.5664690000     2.9865110000     2.6984870000 
 H        4.2698980000     0.6027810000     1.8989750000 
*
