! RI PBE def2-SVP def2-SVP/J NBO PAL2
% maxcore 2000
% output
    # printlevel mini
    print[ P_Basis ] 0
    print[ P_SCFInfo ] 1
    print[ P_SCFIterInfo ] 1
    print[ P_OrbEn ] 0
    print[ P_Cartesian ] 0
end
*xyz 0 1
 C        2.5985900000    -1.1869180000     0.4881300000 
 C        2.1196140000     0.0230400000     0.2124160000 
 C        2.9042530000     1.2422970000     0.2184280000 
 C        2.4632990000     2.5133930000    -0.0572090000 
 N        3.5588220000     3.3195070000     0.0759500000 
 C        4.6020440000     2.5231520000     0.4203430000 
 N        4.2463030000     1.2739370000     0.5145810000 
 H        1.9595360000    -2.0608140000     0.4666460000 
 H        3.6433710000    -1.3246430000     0.7413070000 
 H        1.0689790000     0.1430620000    -0.0396110000 
 H        1.4932550000     2.8969190000    -0.3278060000 
 H        3.5849830000     4.3149440000    -0.0567100000 
 H        5.5952720000     2.9133230000     0.5884450000 
*
