! RI PBE def2-SVP def2-SVP/J NBO PAL2
% maxcore 2000
% output
    # printlevel mini
    print[ P_Basis ] 0
    print[ P_SCFInfo ] 1
    print[ P_SCFIterInfo ] 1
    print[ P_OrbEn ] 0
    print[ P_Cartesian ] 0
end
*xyz 0 1
 C        1.0105820000    -0.0393150000    -0.0911270000 
 C        2.5047600000    -0.0028110000    -0.0063420000 
 C        3.1850080000     0.5622730000     0.9962760000 
 C        4.6883650000     0.6446310000     1.1617790000 
 N        4.7872610000     1.3584090000     2.4177080000 
 N        3.6063200000     1.6709350000     2.9507620000 
 C        2.6685600000     1.2370400000     2.1751790000 
 H        0.6797330000    -0.5511950000    -0.9953270000 
 H        0.5785620000     0.9666730000    -0.1084740000 
 H        0.5665460000    -0.5629480000     0.7618640000 
 H        3.0613870000    -0.4674410000    -0.8153320000 
 H        5.1667210000     1.1958040000     0.3436780000 
 H        5.1546160000    -0.3458410000     1.2207880000 
 H        5.6227750000     1.6251660000     2.8981790000 
 H        1.6328930000     1.3939410000     2.4366780000 
*
