! RI PBE def2-SVP def2-SVP/J NBO PAL2
% maxcore 2000
% output
    # printlevel mini
    print[ P_Basis ] 0
    print[ P_SCFInfo ] 1
    print[ P_SCFIterInfo ] 1
    print[ P_OrbEn ] 0
    print[ P_Cartesian ] 0
end
*xyz 0 1
 C        1.7312610000     1.3958620000     0.2676320000 
 C        2.3323930000     0.0140880000     0.0701570000 
 C        3.1256010000    -0.1263860000    -1.2214090000 
 C        3.6779190000    -1.5287590000    -1.4872410000 
 N        4.9013140000    -1.2378670000    -2.2346940000 
 N        5.3692590000    -0.0002600000    -1.8455970000 
 C        4.4159560000     0.6472360000    -1.3031000000 
 H        1.1536410000     1.4452060000     1.1931190000 
 H        1.0607640000     1.6555680000    -0.5562370000 
 H        2.5024850000     2.1681140000     0.3215510000 
 H        1.5304560000    -0.7325690000     0.0712700000 
 H        2.9844750000    -0.2351050000     0.9144870000 
 H        2.4848860000     0.1845840000    -2.0614460000 
 H        3.0029600000    -2.1606500000    -2.0654860000 
 H        3.8968790000    -2.0266020000    -0.5294460000 
 H        5.6375650000    -1.9252210000    -2.1695700000 
 H        4.5629860000     1.6780600000    -1.0060910000 
*
