! RI PBE def2-SVP def2-SVP/J NBO PAL2
% maxcore 2000
% output
    # printlevel mini
    print[ P_Basis ] 0
    print[ P_SCFInfo ] 1
    print[ P_SCFIterInfo ] 1
    print[ P_OrbEn ] 0
    print[ P_Cartesian ] 0
end
*xyz 0 1
 C        2.6930310000    -1.2154200000     0.2412970000 
 C        2.3988300000     0.0604120000     0.0005950000 
 C        3.0832550000     0.9376050000    -0.9289110000 
 C        2.7807980000     2.2618660000    -1.1805810000 
 N        3.6595930000     2.6904020000    -2.1040450000 
 N        4.5234100000     1.7480230000    -2.4841150000 
 C        4.1850880000     0.6844160000    -1.7808730000 
 H        2.1224650000    -1.7937490000     0.9568960000 
 H        3.5071160000    -1.7245470000    -0.2629020000 
 H        1.5693540000     0.5112990000     0.5406440000 
 H        2.0175780000     2.9056820000    -0.7717090000 
 H        3.7228960000     3.6056860000    -2.5127950000 
 H        4.7411850000    -0.2326640000    -1.9054920000 
*
