! RI PBE def2-SVP def2-SVP/J NBO PAL2
% maxcore 2000
% output
    # printlevel mini
    print[ P_Basis ] 0
    print[ P_SCFInfo ] 1
    print[ P_SCFIterInfo ] 1
    print[ P_OrbEn ] 0
    print[ P_Cartesian ] 0
end
*xyz 0 1
 C        1.1681750000    -0.0443930000    -0.4020610000 
 C        2.6556590000     0.2727170000    -0.3889990000 
 C        3.0797630000     1.0117980000     0.8483800000 
 N        4.3608670000     1.7128900000     0.8948410000 
 C        3.1194560000     2.4870790000     0.8847930000 
 C        2.7961420000     3.2763000000     2.1206000000 
 C        1.3169650000     3.6108580000     2.2272400000 
 H        0.8866400000    -0.5928320000    -1.3035870000 
 H        0.5708920000     0.8700790000    -0.3632400000 
 H        0.8904420000    -0.6582520000     0.4588730000 
 H        2.9174600000     0.8744750000    -1.2679250000 
 H        3.2312320000    -0.6571930000    -0.4681780000 
 H        2.8463410000     0.5014230000     1.7823330000 
 H        4.7849700000     1.7129480000    -0.0276900000 
 H        2.8596980000     2.9796290000    -0.0527170000 
 H        3.3900020000     4.1972720000     2.1217830000 
 H        3.1241710000     2.7003600000     2.9910460000 
 H        0.9808630000     4.2030190000     1.3712640000 
 H        1.1044250000     4.1872790000     3.1301510000 
 H        0.7086480000     2.7028330000     2.2586930000 
*
