! RI PBE def2-SVP def2-SVP/J NBO PAL2
% maxcore 2000
% output
    # printlevel mini
    print[ P_Basis ] 0
    print[ P_SCFInfo ] 1
    print[ P_SCFIterInfo ] 1
    print[ P_OrbEn ] 0
    print[ P_Cartesian ] 0
end
*xyz 0 1
 C        0.9453480000    -0.0593900000    -0.1604900000 
 C        2.1451820000    -0.0361360000    -0.1071390000 
 C        3.5764260000    -0.0337500000    -0.0470100000 
 N        4.3567930000    -0.7531380000    -1.0505990000 
 C        4.3478920000     0.7077660000    -1.0946340000 
 C        5.5626220000     1.3961000000    -0.7678780000 
 C        6.5640250000     1.9986480000    -0.4948760000 
 H       -0.1180450000    -0.0770360000    -0.2055430000 
 H        4.0067520000    -0.0722790000     0.9484030000 
 H        3.7359540000    -1.1164700000    -1.7673200000 
 H        3.7422530000     1.1833450000    -1.8605680000 
 H        7.4576080000     2.5239520000    -0.2532350000 
*
