! RI PBE def2-SVP def2-SVP/J NBO PAL2
% maxcore 2000
% output
    # printlevel mini
    print[ P_Basis ] 0
    print[ P_SCFInfo ] 1
    print[ P_SCFIterInfo ] 1
    print[ P_OrbEn ] 0
    print[ P_Cartesian ] 0
end
*xyz 0 1
 C        1.3297150000    -0.4188000000     0.2766610000 
 C        2.6690780000     0.1327870000    -0.1891990000 
 C        3.1773850000     1.2341670000     0.6976400000 
 N        4.2321390000     2.1496890000     0.2534990000 
 C        2.8834100000     2.6746230000     0.5067700000 
 C        2.0616860000     3.1607670000    -0.6566120000 
 C        2.7946520000     3.5538200000     1.7258550000 
 H        1.0009440000    -1.2490810000    -0.3521980000 
 H        0.5554350000     0.3518670000     0.2488570000 
 H        1.3929770000    -0.7863810000     1.3043630000 
 H        2.5890600000     0.4834700000    -1.2224770000 
 H        3.4137160000    -0.6717310000    -0.2020440000 
 H        3.3154040000     0.9164180000     1.7312460000 
 H        4.3681200000     2.0346180000    -0.7475030000 
 H        2.1241390000     2.4999350000    -1.5224460000 
 H        2.4049590000     4.1519510000    -0.9689800000 
 H        1.0079250000     3.2527730000    -0.3783030000 
 H        3.4447690000     3.1773560000     2.5166050000 
 H        1.7695180000     3.5949270000     2.1054100000 
 H        3.1091790000     4.5746360000     1.4889560000 
*
