! RI PBE def2-SVP def2-SVP/J NBO PAL2
% maxcore 2000
% output
    # printlevel mini
    print[ P_Basis ] 0
    print[ P_SCFInfo ] 1
    print[ P_SCFIterInfo ] 1
    print[ P_OrbEn ] 0
    print[ P_Cartesian ] 0
end
*xyz 0 1
 C        2.4268930000     1.3390930000    -0.0522180000 
 C        2.4705340000    -0.1774090000    -0.1578870000 
 C        2.9887220000    -0.8322120000     1.0913870000 
 N        3.4524300000    -2.2079870000     1.0788460000 
 C        4.4366290000    -1.1254140000     1.2399990000 
 C        5.1237070000    -1.0486410000     2.5359290000 
 C        6.3572940000    -0.5902120000     2.7051810000 
 H        2.0365800000     1.7885710000    -0.9677200000 
 H        3.4230510000     1.7501660000     0.1281650000 
 H        1.7838740000     1.6566720000     0.7726990000 
 H        3.1027820000    -0.4771800000    -1.0024600000 
 H        1.4663000000    -0.5622820000    -0.3714190000 
 H        2.4433170000    -0.5763940000     1.9984890000 
 H        3.4813990000    -2.5590000000     0.1263440000 
 H        5.0512560000    -0.8801300000     0.3758180000 
 H        4.5481340000    -1.3999850000     3.3891860000 
 H        6.9548360000    -0.2462470000     1.8664190000 
 H        6.8143500000    -0.5426190000     3.6860640000 
*
