! RI PBE def2-SVP def2-SVP/J NBO PAL2
% maxcore 2000
% output
    # printlevel mini
    print[ P_Basis ] 0
    print[ P_SCFInfo ] 1
    print[ P_SCFIterInfo ] 1
    print[ P_OrbEn ] 0
    print[ P_Cartesian ] 0
end
*xyz 0 1
 C        1.3526700000    -0.3605520000    -0.5757050000 
 C        2.2040420000     0.2970500000     0.1988810000 
 C        3.0285760000    -0.3038380000     1.2665740000 
 N        3.2055390000    -1.7304290000     1.4094060000 
 C        4.3331800000    -0.9446290000     0.9130480000 
 C        5.4784130000    -0.8223640000     1.7743490000 
 N        6.4041720000    -0.6926980000     2.4442540000 
 H        0.7862700000     0.1496930000    -1.3448180000 
 H        1.1707390000    -1.4255100000    -0.4697250000 
 H        2.3228140000     1.3708760000     0.0770910000 
 H        3.0064990000     0.2225990000     2.2175380000 
 H        2.7831360000    -2.2314960000     0.6341660000 
 H        4.5734390000    -0.9933110000    -0.1443590000 
*
