! RI PBE def2-SVP def2-SVP/J NBO PAL2
% maxcore 2000
% output
    # printlevel mini
    print[ P_Basis ] 0
    print[ P_SCFInfo ] 1
    print[ P_SCFIterInfo ] 1
    print[ P_OrbEn ] 0
    print[ P_Cartesian ] 0
end
*xyz 0 1
 C        0.9898820000     0.0738890000    -0.0231480000 
 C        2.1889060000     0.0940040000     0.0312200000 
 C        3.6203030000     0.0892380000     0.0946360000 
 N        4.4020000000    -0.6261770000    -0.9073080000 
 C        4.3867700000     0.8290310000    -0.9563150000 
 C        5.6101100000     1.5074090000    -0.6196000000 
 N        6.5700440000     2.0772750000    -0.3447920000 
 H       -0.0739650000     0.0593350000    -0.0674790000 
 H        4.0502360000     0.0516200000     1.0903860000 
 H        3.7920290000    -0.9973110000    -1.6291960000 
 H        3.7975850000     1.3239070000    -1.7213140000 
*
