! RI PBE def2-SVP def2-SVP/J NBO PAL2
% maxcore 2000
% output
    # printlevel mini
    print[ P_Basis ] 0
    print[ P_SCFInfo ] 1
    print[ P_SCFIterInfo ] 1
    print[ P_OrbEn ] 0
    print[ P_Cartesian ] 0
end
*xyz 0 1
 C        1.1445320000    -0.4910740000     0.1065690000 
 C        2.5828640000    -0.0385200000    -0.0888950000 
 C        3.0873550000     0.8020190000     1.0486000000 
 N        4.2557490000     1.6471060000     0.9042830000 
 C        2.9375840000     2.2806630000     0.9966760000 
 C        2.6676640000     3.0530870000     2.1796170000 
 N        2.4156470000     3.6671450000     3.1188630000 
 H        0.8139260000    -1.1147950000    -0.7259400000 
 H        0.4666200000     0.3627590000     0.1776640000 
 H        1.0374270000    -1.0766260000     1.0229390000 
 H        2.6770040000     0.5306660000    -1.0215360000 
 H        3.2373040000    -0.9114270000    -0.1910970000 
 H        3.0173190000     0.3460440000     2.0332970000 
 H        4.5685030000     1.6673600000    -0.0620150000 
 H        2.4959230000     2.6940920000     0.0944840000 
*
