! RI PBE def2-SVP def2-SVP/J NBO PAL2
% maxcore 2000
% output
    # printlevel mini
    print[ P_Basis ] 0
    print[ P_SCFInfo ] 1
    print[ P_SCFIterInfo ] 1
    print[ P_OrbEn ] 0
    print[ P_Cartesian ] 0
end
*xyz 0 1
 C        1.2154370000     0.6883780000     1.1271610000 
 C        2.3137590000     0.1472800000     0.2271290000 
 C        2.9893310000     1.1152210000    -0.7284530000 
 N        4.0378920000     0.5404760000    -1.5303890000 
 C        2.1944640000     2.1776270000    -1.4281040000 
 C        3.1732320000     2.5625520000    -0.3537420000 
 C        4.4248310000     3.3217840000    -0.6882080000 
 H        0.7888650000    -0.1179050000     1.7280560000 
 H        0.3983650000     1.1317250000     0.5533700000 
 H        1.5893810000     1.4445340000     1.8206750000 
 H        1.9074140000    -0.6758190000    -0.3752130000 
 H        3.0970180000    -0.3009010000     0.8524890000 
 H        3.6618880000    -0.1795350000    -2.1366970000 
 H        4.7365680000     0.1001080000    -0.9418580000 
 H        1.1347990000     2.2675090000    -1.2233740000 
 H        2.4826860000     2.3888050000    -2.4512240000 
 H        2.7160270000     2.8461070000     0.5888740000 
 H        4.8577100000     2.9571240000    -1.6199270000 
 H        5.1781570000     3.2139280000     0.0980060000 
 H        4.2123780000     4.3890110000    -0.7978720000 
*
