! RI PBE def2-SVP def2-SVP/J NBO PAL2
% maxcore 2000
% output
    # printlevel mini
    print[ P_Basis ] 0
    print[ P_SCFInfo ] 1
    print[ P_SCFIterInfo ] 1
    print[ P_OrbEn ] 0
    print[ P_Cartesian ] 0
end
*xyz 0 1
 C        2.0959170000     0.7844980000     1.2391200000 
 C        2.3071230000     0.0148000000     0.1816880000 
 C        3.0817960000     0.3931460000    -1.0537920000 
 N        4.2398620000    -0.5056500000    -1.2347110000 
 C        5.4392420000     0.2582300000    -0.8750900000 
 C        5.0032450000     1.6951870000    -0.8987380000 
 C        3.6847200000     1.7726730000    -1.0083880000 
 H        1.5302250000     0.4256400000     2.0912720000 
 H        2.4864420000     1.7949020000     1.2982480000 
 H        1.9158890000    -0.9998150000     0.1662890000 
 H        2.4036490000     0.2756290000    -1.9096200000 
 H        4.3013820000    -0.7515930000    -2.2127710000 
 H        6.2573510000     0.0423640000    -1.5688090000 
 H        5.7969950000    -0.0171060000     0.1264630000 
 H        5.6834400000     2.5316010000    -0.7907870000 
 H        3.0982130000     2.6826950000    -1.0128450000 
*
