! RI PBE def2-SVP def2-SVP/J NBO PAL2
% maxcore 2000
% output
    # printlevel mini
    print[ P_Basis ] 0
    print[ P_SCFInfo ] 1
    print[ P_SCFIterInfo ] 1
    print[ P_OrbEn ] 0
    print[ P_Cartesian ] 0
end
*xyz 0 1
 C        0.8542950000     0.0744750000    -0.4838350000 
 C        2.0099870000     0.0094100000    -0.1662380000 
 C        3.4298990000    -0.0507330000     0.1855840000 
 N        3.7685220000    -1.2355600000     0.9737680000 
 C        4.7278020000    -0.8766270000     2.0124080000 
 C        4.6028270000     0.6102660000     2.0850850000 
 C        3.8794200000     1.0762170000     1.0800630000 
 H       -0.1745150000     0.1239260000    -0.7514790000 
 H        3.9934550000     0.0045350000    -0.7638320000 
 H        4.0642020000    -2.0096590000     0.3998440000 
 H        5.7652870000    -1.1626890000     1.7717300000 
 H        4.4794710000    -1.3605090000     2.9652120000 
 H        5.0644330000     1.2048250000     2.8630220000 
 H        3.6319050000     2.1087030000     0.8752770000 
*
