! RI PBE def2-SVP def2-SVP/J NBO PAL2
% maxcore 2000
% output
    # printlevel mini
    print[ P_Basis ] 0
    print[ P_SCFInfo ] 1
    print[ P_SCFIterInfo ] 1
    print[ P_OrbEn ] 0
    print[ P_Cartesian ] 0
end
*xyz 0 1
 C        0.8536420000    -0.3085720000    -0.3375550000 
 C        2.2976870000    -0.0064400000     0.0292260000 
 C        2.8417590000    -0.6444790000     1.3038710000 
 N        4.2326690000    -0.2842140000     1.5527040000 
 C        2.0573080000    -0.4639500000     2.6250090000 
 C        2.3800500000    -1.9272450000     2.9793200000 
 C        2.7024430000    -2.1734750000     1.4939370000 
 H        0.5784970000     0.2006760000    -1.2641550000 
 H        0.1584410000     0.0268980000     0.4355270000 
 H        0.6881430000    -1.3771320000    -0.4934010000 
 H        2.4252270000     1.0800260000     0.1232080000 
 H        2.9507840000    -0.3129870000    -0.7984210000 
 H        4.3222500000     0.7237390000     1.6279740000 
 H        4.8113310000    -0.5722670000     0.7705070000 
 H        0.9898820000    -0.3164600000     2.4515620000 
 H        2.4206570000     0.3173420000     3.2956540000 
 H        1.5803020000    -2.5221360000     3.4222940000 
 H        3.2709380000    -2.0026520000     3.6014300000 
 H        1.8430560000    -2.5772660000     0.9557530000 
 H        3.5854140000    -2.7691150000     1.2535650000 
*
