! RI PBE def2-SVP def2-SVP/J NBO PAL2
% maxcore 2000
% output
    # printlevel mini
    print[ P_Basis ] 0
    print[ P_SCFInfo ] 1
    print[ P_SCFIterInfo ] 1
    print[ P_OrbEn ] 0
    print[ P_Cartesian ] 0
end
*xyz 0 1
 C        2.1405780000     1.7578320000     0.0833910000 
 C        2.4364770000     0.2700330000     0.0030050000 
 C        3.2174340000    -0.1343130000    -1.2452100000 
 N        3.3820890000    -1.5875570000    -1.3300920000 
 C        4.7277360000    -1.9155350000    -1.7889170000 
 C        5.4715170000    -0.6362290000    -1.5805930000 
 C        4.6366190000     0.3498250000    -1.2867510000 
 H        1.5388770000     1.9926690000     0.9640190000 
 H        1.5861810000     2.1009810000    -0.7953800000 
 H        3.0561550000     2.3514790000     0.1475250000 
 H        1.4975310000    -0.2937930000     0.0068140000 
 H        2.9984870000    -0.0642360000     0.8804150000 
 H        2.6755490000     0.2753540000    -2.1193250000 
 H        2.6634330000    -2.0245970000    -1.8860760000 
 H        4.7710470000    -2.2168840000    -2.8492890000 
 H        5.1566370000    -2.7445430000    -1.2110760000 
 H        6.5468140000    -0.5542450000    -1.6783170000 
 H        4.9142470000     1.3809780000    -1.1098400000 
*
