! RI PBE def2-SVP def2-SVP/J NBO PAL2
% maxcore 2000
% output
    # printlevel mini
    print[ P_Basis ] 0
    print[ P_SCFInfo ] 1
    print[ P_SCFIterInfo ] 1
    print[ P_OrbEn ] 0
    print[ P_Cartesian ] 0
end
*xyz 0 1
 C        1.1186860000     0.0327850000     0.4713880000 
 C        2.2322500000     0.0676140000    -0.2532020000 
 C        3.0147400000     1.2672540000    -0.5245120000 
 N        4.1712520000     1.2136080000    -1.0693580000 
 C        4.6657670000     2.5839430000    -1.1213640000 
 C        3.4433230000     3.4747280000    -0.8463090000 
 N        2.5669550000     2.5301710000    -0.1611910000 
 H        0.5887590000    -0.8967390000     0.6394300000 
 H        0.7093850000     0.9193700000     0.9436120000 
 H        2.6473230000    -0.8347390000    -0.6878890000 
 H        5.1419590000     2.7914380000    -2.0816040000 
 H        5.4305410000     2.7111210000    -0.3452180000 
 H        2.9910970000     3.8320570000    -1.7803220000 
 H        3.6726250000     4.3386080000    -0.2203310000 
 H        1.5738480000     2.6914840000    -0.2236400000 
*
