! RI PBE def2-SVP def2-SVP/J NBO PAL2
% maxcore 2000
% output
    # printlevel mini
    print[ P_Basis ] 0
    print[ P_SCFInfo ] 1
    print[ P_SCFIterInfo ] 1
    print[ P_OrbEn ] 0
    print[ P_Cartesian ] 0
end
*xyz 0 1
 C        2.6849460000    -1.2988540000     0.4282220000 
 C        2.3453150000    -0.1227730000    -0.0957790000 
 C        2.9479410000     0.5251020000    -1.2383540000 
 N        2.5681650000     1.6944560000    -1.7134900000 
 C        3.3754860000     1.9477960000    -2.7785200000 
 C        4.2624280000     0.9223940000    -2.9609610000 
 N        3.9784360000     0.0243110000    -1.9734540000 
 H        2.1645730000    -1.6945230000     1.2907160000 
 H        3.4854380000    -1.9134370000     0.0284300000 
 H        1.5372970000     0.4556810000     0.3395820000 
 H        3.2809730000     2.8513450000    -3.3607920000 
 H        5.0451520000     0.7580630000    -3.6830220000 
 H        4.4477400000    -0.8500510000    -1.8187080000 
*
