! RI PBE def2-SVP def2-SVP/J NBO PAL2
% maxcore 2000
% output
    # printlevel mini
    print[ P_Basis ] 0
    print[ P_SCFInfo ] 1
    print[ P_SCFIterInfo ] 1
    print[ P_OrbEn ] 0
    print[ P_Cartesian ] 0
end
*xyz 0 1
 C        1.2481030000     0.2442220000    -0.7525690000 
 C        2.2684020000    -0.0109100000     0.0681200000 
 C        2.9978550000     0.9893370000     0.8052010000 
 N        4.0005390000     0.6724780000     1.5457460000 
 N        4.5708940000     1.8081420000     2.0461710000 
 C        3.6128020000     2.9119580000     1.9598960000 
 C        2.7688730000     2.4800080000     0.7648680000 
 H        0.7385950000    -0.5527450000    -1.2793340000 
 H        0.8916250000     1.2537390000    -0.9260660000 
 H        2.6098440000    -1.0306430000     0.2201070000 
 H        4.9951570000     1.6369680000     2.9454030000 
 H        4.1230910000     3.8649510000     1.8178200000 
 H        2.9946710000     2.9739460000     2.8662460000 
 H        3.1514900000     2.8907930000    -0.1769760000 
 H        1.7193710000     2.7627670000     0.8508690000 
*
