! RI PBE def2-SVP def2-SVP/J NBO PAL2
% maxcore 2000
% output
    # printlevel mini
    print[ P_Basis ] 0
    print[ P_SCFInfo ] 1
    print[ P_SCFIterInfo ] 1
    print[ P_OrbEn ] 0
    print[ P_Cartesian ] 0
end
*xyz 0 1
 C        2.1143490000    -1.2772220000    -0.0214940000 
 C        2.1818880000     0.0387210000     0.1690980000 
 C        2.9503370000     0.6809620000     1.2132670000 
 N        2.9663540000     1.9650630000     1.3347310000 
 N        3.7883080000     2.3210480000     2.4256370000 
 C        4.2590400000     1.2550290000     2.9507590000 
 C        3.7957400000     0.0280870000     2.2553440000 
 H        1.5202060000    -1.6984070000    -0.8229020000 
 H        2.6472620000    -1.9778290000     0.6127150000 
 H        1.6405740000     0.7223640000    -0.4773050000 
 H        4.9199430000     1.2964690000     3.8087100000 
 H        3.2294060000    -0.6415990000     2.9111540000 
 H        4.6206030000    -0.5571880000     1.8353960000 
*
