! RI PBE def2-SVP def2-SVP/J NBO PAL2
% maxcore 2000
% output
    # printlevel mini
    print[ P_Basis ] 0
    print[ P_SCFInfo ] 1
    print[ P_SCFIterInfo ] 1
    print[ P_OrbEn ] 0
    print[ P_Cartesian ] 0
end
*xyz 0 1
 C        1.1045920000     0.0103240000     0.2268880000 
 C        2.3052620000    -0.0153480000     0.1326850000 
 C        3.7075800000     0.0514090000     0.0243180000 
 N        4.4600920000    -0.9928620000    -0.0542090000 
 N        5.7308590000    -0.6146960000    -0.1438640000 
 C        5.9386790000     0.8240520000    -0.1394620000 
 C        4.4968010000     1.3450390000    -0.0107370000 
 H        0.0439280000     0.0079590000     0.3095810000 
 H        6.4352130000    -1.3214610000    -0.2199790000 
 H        6.4206220000     1.1591470000    -1.0633790000 
 H        6.5689430000     1.1320110000     0.7006480000 
 H        4.1960350000     1.9696070000    -0.8547830000 
 H        4.3380830000     1.9298190000     0.8981040000 
*
