! RI PBE def2-SVP def2-SVP/J NBO PAL2
% maxcore 2000
% output
    # printlevel mini
    print[ P_Basis ] 0
    print[ P_SCFInfo ] 1
    print[ P_SCFIterInfo ] 1
    print[ P_OrbEn ] 0
    print[ P_Cartesian ] 0
end
*xyz 0 1
 C        0.9371750000     0.0187090000     0.0535750000 
 C        2.1389510000     0.0064430000     0.0545560000 
 C        3.5505300000    -0.0687230000     0.0567250000 
 N        4.3166900000     0.9690230000     0.0636360000 
 N        5.6603050000     0.5393590000     0.0639230000 
 C        5.6907120000    -0.7392020000     0.0577170000 
 C        4.3353900000    -1.3374340000     0.0524650000 
 H       -0.1271370000     0.0519520000     0.0512510000 
 H        6.6313100000    -1.2773780000     0.0568920000 
 H        4.1325570000    -1.9620370000     0.9289340000 
 H        4.1358080000    -1.9539230000    -0.8304660000 
*
