! RI PBE def2-SVP def2-SVP/J NBO PAL2
% maxcore 2000
% output
    # printlevel mini
    print[ P_Basis ] 0
    print[ P_SCFInfo ] 1
    print[ P_SCFIterInfo ] 1
    print[ P_OrbEn ] 0
    print[ P_Cartesian ] 0
end
*xyz 0 1
 C        3.0354740000    -1.6031030000     1.2124540000 
 C        2.8854280000    -0.5370560000     0.1395380000 
 C        3.4636470000     0.8210300000     0.5237990000 
 C        4.9468760000     0.8071860000     0.7795550000 
 C        5.6078990000     1.9766270000     1.4610190000 
 C        5.5106610000     0.6703640000     2.1699990000 
 N        6.7080330000    -0.0526600000     2.4836860000 
 H        2.5786280000    -2.5455500000     0.9014560000 
 H        2.5562010000    -1.2940880000     2.1460740000 
 H        4.0869430000    -1.8017220000     1.4328400000 
 H        1.8247640000    -0.4120880000    -0.1025750000 
 H        3.3665100000    -0.8797970000    -0.7842370000 
 H        2.9534240000     1.1955820000     1.4207560000 
 H        3.2388280000     1.5405440000    -0.2726470000 
 H        5.5422000000     0.3356100000    -0.0000440000 
 H        4.9815040000     2.7964720000     1.7933700000 
 H        6.5873720000     2.2830760000     1.1101690000 
 H        4.7729110000     0.6211690000     2.9665880000 
 H        7.4539630000     0.1875420000     1.8434450000 
 H        6.5582360000    -1.0524380000     2.4135550000 
*
