! RI PBE def2-SVP def2-SVP/J NBO PAL2
% maxcore 2000
% output
    # printlevel mini
    print[ P_Basis ] 0
    print[ P_SCFInfo ] 1
    print[ P_SCFIterInfo ] 1
    print[ P_OrbEn ] 0
    print[ P_Cartesian ] 0
end
*xyz 0 1
 C        0.9534090000     0.1710700000     0.4421140000 
 C        2.4433820000     0.1842590000     0.4018460000 
 C        3.2027070000     1.2190660000     0.7493830000 
 C        4.6720680000     1.2991840000     0.6768800000 
 C        5.5131120000     0.2527260000    -0.0014390000 
 C        5.3751620000     1.5864010000    -0.6430340000 
 N        6.5172540000     2.4353230000    -0.7717860000 
 H        0.5297540000    -0.0140640000    -0.5505970000 
 H        0.5553660000     1.1200450000     0.8074070000 
 H        0.5820870000    -0.6275440000     1.0926080000 
 H        2.9228630000    -0.7330460000     0.0655130000 
 H        2.7066320000     2.1235490000     1.1025020000 
 H        5.1436610000     1.7844400000     1.5277870000 
 H        5.0260440000    -0.5967590000    -0.4627000000 
 H        6.4678390000     0.0158760000     0.4553910000 
 H        4.7118280000     1.6272060000    -1.5018880000 
 H        7.2111210000     2.2273470000    -0.0655470000 
 H        6.2640920000     3.4114200000    -0.6783600000 
*
