! RI PBE def2-SVP def2-SVP/J NBO PAL2
% maxcore 2000
% output
    # printlevel mini
    print[ P_Basis ] 0
    print[ P_SCFInfo ] 1
    print[ P_SCFIterInfo ] 1
    print[ P_OrbEn ] 0
    print[ P_Cartesian ] 0
end
*xyz 0 1
 C        0.9156240000     0.0339120000     0.1890850000 
 C        2.4161410000     0.0463920000    -0.0494820000 
 C        3.1049150000    -1.2270200000     0.4161180000 
 C        4.6043720000    -1.2203730000     0.1836590000 
 C        5.4186430000    -0.3836720000     1.1926010000 
 C        5.7873710000    -1.7195430000     1.8568960000 
 N        5.3211900000    -2.4230880000     0.6511450000 
 H        0.4464230000     0.9575680000    -0.1575260000 
 H        0.6856750000    -0.0762360000     1.2526280000 
 H        0.4394760000    -0.7980200000    -0.3375000000 
 H        2.8610500000     0.9076260000     0.4618270000 
 H        2.6178170000     0.1920500000    -1.1169080000 
 H        2.6728880000    -2.0854110000    -0.1154150000 
 H        2.9026340000    -1.3888230000     1.4832600000 
 H        4.8019740000    -0.9979290000    -0.8722170000 
 H        4.8595180000     0.3324540000     1.7956810000 
 H        6.2741420000     0.1183500000     0.7413920000 
 H        5.1972900000    -1.9198310000     2.7596430000 
 H        6.8425250000    -1.8826980000     2.0923570000 
 H        4.7352130000    -3.2328080000     0.8149760000 
*
