! RI PBE def2-SVP def2-SVP/J NBO PAL2
% maxcore 2000
% output
    # printlevel mini
    print[ P_Basis ] 0
    print[ P_SCFInfo ] 1
    print[ P_SCFIterInfo ] 1
    print[ P_OrbEn ] 0
    print[ P_Cartesian ] 0
end
*xyz 0 1
 C        1.9106880000     2.3360210000     2.0015760000 
 C        2.4476720000     1.5449870000     1.0827000000 
 C        3.2763230000     0.3379240000     1.3649170000 
 C        4.6935670000     0.4567130000     0.8109600000 
 C        5.6275180000     1.3617030000     1.6367820000 
 C        6.2150800000     0.0631140000     2.2124250000 
 N        5.5762230000    -0.6833660000     1.1161840000 
 H        1.3270070000     3.2081300000     1.7302780000 
 H        2.0301700000     2.1344410000     3.0620250000 
 H        2.3013000000     1.7865160000     0.0307710000 
 H        2.8081090000    -0.5417610000     0.9024310000 
 H        3.3161920000     0.1540520000     2.4443950000 
 H        4.6420230000     0.6811200000    -0.2609180000 
 H        5.1433900000     2.0472230000     2.3322320000 
 H        6.3384420000     1.9137570000     1.0226430000 
 H        5.8265390000    -0.1710320000     3.2112340000 
 H        7.3045890000    -0.0219380000     2.2372830000 
 H        5.1029710000    -1.5392150000     1.3797030000 
*
