! RI PBE def2-SVP def2-SVP/J NBO PAL2
% maxcore 2000
% output
    # printlevel mini
    print[ P_Basis ] 0
    print[ P_SCFInfo ] 1
    print[ P_SCFIterInfo ] 1
    print[ P_OrbEn ] 0
    print[ P_Cartesian ] 0
end
*xyz 0 1
 C        4.5544930000    -1.7008540000    -1.4831110000 
 C        4.0862470000    -0.9083570000    -0.7117220000 
 C        3.5436180000     0.0285760000     0.2566520000 
 C        4.3818390000     0.1001790000     1.5359590000 
 C        3.6368390000     0.7721980000     2.7047160000 
 C        3.3683020000    -0.6534450000     3.2160270000 
 N        4.4308270000    -1.1371380000     2.3232300000 
 H        4.9667860000    -2.3959300000    -2.1755770000 
 H        2.5170040000    -0.2645800000     0.5063440000 
 H        3.4855240000     1.0273350000    -0.1911160000 
 H        5.3714350000     0.4975200000     1.2888540000 
 H        2.7735440000     1.3871200000     2.4487030000 
 H        4.3027380000     1.3353520000     3.3575510000 
 H        2.3600290000    -1.0083600000     2.9671020000 
 H        3.5487880000    -0.8444210000     4.2769610000 
 H        4.2574850000    -1.9938050000     1.8114280000 
*
