! RI PBE def2-SVP def2-SVP/J NBO PAL2
% maxcore 2000
% output
    # printlevel mini
    print[ P_Basis ] 0
    print[ P_SCFInfo ] 1
    print[ P_SCFIterInfo ] 1
    print[ P_OrbEn ] 0
    print[ P_Cartesian ] 0
end
*xyz 0 1
 C        4.1799340000     1.4540080000     0.9606790000 
 C        3.6113070000     0.2273240000     0.3190740000 
 C        2.6362820000     0.2859930000    -0.5818390000 
 C        4.2355860000    -1.0575040000     0.7882160000 
 C        3.6633050000    -1.5624590000     2.1406510000 
 C        2.9003440000    -2.6023430000     1.3066770000 
 N        3.7992190000    -2.3163180000     0.1796470000 
 H        3.6628570000     2.3568410000     0.6344700000 
 H        5.2428960000     1.5586350000     0.7197150000 
 H        4.1119160000     1.3939660000     2.0519810000 
 H        2.2099160000     1.2347180000    -0.8875920000 
 H        2.2224690000    -0.6025550000    -1.0456920000 
 H        5.3261350000    -0.9311040000     0.7726550000 
 H        3.0693310000    -0.8519920000     2.7141950000 
 H        4.4266680000    -2.0049270000     2.7801080000 
 H        1.8555790000    -2.3148840000     1.1393270000 
 H        2.9300150000    -3.6379350000     1.6555090000 
 H        3.3777410000    -2.2457640000    -0.7370810000 
*
