! RI PBE def2-SVP def2-SVP/J NBO PAL2
% maxcore 2000
% output
    # printlevel mini
    print[ P_Basis ] 0
    print[ P_SCFInfo ] 1
    print[ P_SCFIterInfo ] 1
    print[ P_OrbEn ] 0
    print[ P_Cartesian ] 0
end
*xyz 0 1
 C        1.1123510000    -0.1009900000     0.0998120000 
 C        2.6348780000    -0.1391350000     0.0410850000 
 C        3.2072100000    -0.6861300000     1.3420740000 
 C        3.0944120000    -0.8847590000    -1.2119700000 
 C        4.6106230000    -1.1163680000    -1.3725530000 
 C        4.3322220000    -2.5938920000    -1.0536270000 
 N        2.8938400000    -2.3480530000    -1.2406510000 
 H        0.7636120000     0.4889340000     0.9510260000 
 H        0.6956300000    -1.1076190000     0.2100880000 
 H        0.6894390000     0.3332540000    -0.8095150000 
 H        2.9939580000     0.8923400000    -0.0799260000 
 H        2.8802870000    -1.7150840000     1.5199460000 
 H        2.8631240000    -0.0889230000     2.1899300000 
 H        4.2988570000    -0.6730480000     1.3530690000 
 H        2.6227130000    -0.3945100000    -2.0727390000 
 H        5.2623420000    -0.5777510000    -0.6843040000 
 H        4.9610060000    -0.9529050000    -2.3914220000 
 H        4.6217260000    -2.8734360000    -0.0336670000 
 H        4.7485790000    -3.3318590000    -1.7451600000 
 H        2.2831810000    -2.7237780000    -0.5263950000 
*
