! RI PBE def2-SVP def2-SVP/J NBO PAL2
% maxcore 2000
% output
    # printlevel mini
    print[ P_Basis ] 0
    print[ P_SCFInfo ] 1
    print[ P_SCFIterInfo ] 1
    print[ P_OrbEn ] 0
    print[ P_Cartesian ] 0
end
*xyz 0 1
 C        3.2279620000    -0.0706000000    -1.8066800000 
 C        2.9099630000     0.3167610000    -0.3715570000 
 C        3.3455960000    -0.7143450000     0.6639840000 
 C        4.8340290000    -0.8914240000     0.7724220000 
 C        5.4430910000    -2.1040460000     1.3659770000 
 N        5.4842660000    -1.8814740000    -0.0647830000 
 C        6.7741770000    -1.5216390000    -0.6052210000 
 H        2.8727390000     0.6891670000    -2.5071320000 
 H        2.7535680000    -1.0194860000    -2.0704830000 
 H        4.3014620000    -0.1940500000    -1.9623810000 
 H        1.8313980000     0.4777770000    -0.2710500000 
 H        3.3793990000     1.2797940000    -0.1367770000 
 H        2.9000020000    -1.6876460000     0.4317880000 
 H        2.9638350000    -0.4179680000     1.6479960000 
 H        5.3961180000     0.0311210000     0.9322600000 
 H        4.8094360000    -2.9195380000     1.7010530000 
 H        6.3685620000    -1.9817340000     1.9245040000 
 H        7.3483760000    -2.4281440000    -0.8116070000 
 H        7.3657540000    -0.8858360000     0.0734690000 
 H        6.6401740000    -0.9840020000    -1.5474710000 
*
