! RI PBE def2-SVP def2-SVP/J NBO PAL2
% maxcore 2000
% output
    # printlevel mini
    print[ P_Basis ] 0
    print[ P_SCFInfo ] 1
    print[ P_SCFIterInfo ] 1
    print[ P_OrbEn ] 0
    print[ P_Cartesian ] 0
end
*xyz 0 1
 C        1.0283120000     0.0654200000     0.4350880000 
 C        2.5032320000     0.0219710000     0.0502830000 
 C        3.1467720000     1.3911750000     0.2065860000 
 C        3.1955020000    -1.0597950000     0.8503750000 
 C        4.6065650000    -1.0275740000     1.3002750000 
 N        3.5233360000    -0.7979880000     2.2349090000 
 C        3.2587740000    -1.8607310000     3.1764740000 
 H        0.4821340000     0.7906870000    -0.1730670000 
 H        0.9210200000     0.3550850000     1.4841600000 
 H        0.5506520000    -0.9095960000     0.3038140000 
 H        2.5739690000    -0.2747760000    -1.0044150000 
 H        3.1923250000     1.6732750000     1.2612140000 
 H        2.5644910000     2.1478700000    -0.3244450000 
 H        4.1613140000     1.4129740000    -0.1973450000 
 H        2.8096260000    -2.0613450000     0.6486310000 
 H        5.2389170000    -0.1716860000     1.0908100000 
 H        5.1297130000    -1.9800840000     1.3586390000 
 H        3.9139310000    -1.7518300000     4.0443250000 
 H        3.4173270000    -2.8639130000     2.7483300000 
 H        2.2239770000    -1.7948290000     3.5209560000 
*
