! RI PBE def2-SVP def2-SVP/J NBO PAL2
% maxcore 2000
% output
    # printlevel mini
    print[ P_Basis ] 0
    print[ P_SCFInfo ] 1
    print[ P_SCFIterInfo ] 1
    print[ P_OrbEn ] 0
    print[ P_Cartesian ] 0
end
*xyz 0 1
 C        0.9655400000    -0.0306180000     0.1158590000 
 C        2.4152630000    -0.0387090000     0.0862730000 
 C        3.6175770000    -0.0376210000     0.0513990000 
 C        5.0524470000    -0.0538600000     0.0364520000 
 C        5.8364970000    -0.8186590000    -0.9742860000 
 N        5.7508590000     0.6175920000    -1.0520320000 
 C        6.9372650000     1.3491580000    -0.6710220000 
 H        0.5685730000     0.8011510000    -0.4717590000 
 H        0.5954720000     0.0757440000     1.1387440000 
 H        0.5563310000    -0.9573120000    -0.2946500000 
 H        5.5200220000     0.0212060000     1.0177320000 
 H        5.3106850000    -1.3689700000    -1.7462590000 
 H        6.7711020000    -1.2599410000    -0.6333990000 
 H        7.5945580000     1.4421030000    -1.5386580000 
 H        7.5035950000     0.8647880000     0.1410330000 
 H        6.6558240000     2.3528470000    -0.3457150000 
*
