! RI PBE def2-SVP def2-SVP/J NBO PAL2
% maxcore 2000
% output
    # printlevel mini
    print[ P_Basis ] 0
    print[ P_SCFInfo ] 1
    print[ P_SCFIterInfo ] 1
    print[ P_OrbEn ] 0
    print[ P_Cartesian ] 0
end
*xyz 0 1
 C        1.0772720000    -0.1606250000    -0.2242090000 
 C        2.5841950000    -0.3124820000    -0.1057080000 
 C        3.1917500000     0.5835410000     0.9638110000 
 C        4.6915340000     0.4516010000     1.0737510000 
 C        5.5852370000     1.0039760000    -0.0535730000 
 N        6.5275170000     1.4806510000     0.9706810000 
 C        5.4699610000     1.4109760000     1.9911990000 
 H        0.6663820000    -0.8161520000    -0.9954600000 
 H        0.8036030000     0.8665630000    -0.4815080000 
 H        0.5808180000    -0.4057890000     0.7190350000 
 H        3.0521800000    -0.0897770000    -1.0717040000 
 H        2.8335200000    -1.3564430000     0.1165480000 
 H        2.7347230000     0.3504310000     1.9340970000 
 H        2.9354630000     1.6293670000     0.7507150000 
 H        4.9677960000    -0.5838100000     1.2940740000 
 H        5.0736250000     1.8081710000    -0.6032440000 
 H        6.0085530000     0.2985100000    -0.7738000000 
 H        6.9244760000     2.3972550000     0.8102160000 
 H        4.9206660000     2.3529450000     2.1348270000 
 H        5.7957180000     1.0402800000     2.9671400000 
*
