! RI PBE def2-SVP def2-SVP/J NBO PAL2
% maxcore 2000
% output
    # printlevel mini
    print[ P_Basis ] 0
    print[ P_SCFInfo ] 1
    print[ P_SCFIterInfo ] 1
    print[ P_OrbEn ] 0
    print[ P_Cartesian ] 0
end
*xyz 0 1
 C        2.4908220000    -2.6229280000    -2.0243760000 
 C        2.9883400000    -1.4036710000    -2.1778580000 
 C        3.1962110000    -0.4146700000    -1.0787020000 
 C        4.6477790000    -0.0049450000    -0.9304320000 
 C        5.0569400000     0.8824600000     0.2582090000 
 N        6.2818070000     0.0794910000     0.3930800000 
 C        5.6631200000    -1.0167250000    -0.3705200000 
 H        2.3716270000    -3.2983980000    -2.8636290000 
 H        2.1789310000    -2.9880560000    -1.0503700000 
 H        3.2899390000    -1.0797380000    -3.1732730000 
 H        2.8295450000    -0.8302710000    -0.1339870000 
 H        2.5996810000     0.4846730000    -1.2822480000 
 H        5.0196470000     0.4223840000    -1.8657920000 
 H        4.3520050000     0.7740950000     1.0953660000 
 H        5.2220280000     1.9473770000     0.0720200000 
 H        6.5571050000    -0.1458690000     1.3400570000 
 H        5.1651570000    -1.7754910000     0.2501800000 
 H        6.3297360000    -1.5216300000    -1.0741470000 
*
