! RI PBE def2-SVP def2-SVP/J NBO PAL2
% maxcore 2000
% output
    # printlevel mini
    print[ P_Basis ] 0
    print[ P_SCFInfo ] 1
    print[ P_SCFIterInfo ] 1
    print[ P_OrbEn ] 0
    print[ P_Cartesian ] 0
end
*xyz 0 1
 C        1.1516330000     0.5428060000    -0.5022080000 
 C        2.3213740000     0.3375920000    -0.3258130000 
 C        3.7371430000     0.0684550000    -0.1322950000 
 C        4.2809520000    -0.9598350000    -1.1071490000 
 C        5.7108690000    -1.4853100000    -0.8943790000 
 N        5.2330430000    -2.8269740000    -1.2591820000 
 C        3.8461550000    -2.4283150000    -0.9678990000 
 H        0.1149640000     0.7283360000    -0.6549350000 
 H        3.8987560000    -0.2782310000     0.8950240000 
 H        4.2972220000     1.0053060000    -0.2344390000 
 H        4.1417780000    -0.6147790000    -2.1333550000 
 H        6.0194940000    -1.3856610000     0.1568500000 
 H        6.5040050000    -1.0884930000    -1.5337660000 
 H        5.5981090000    -3.5906740000    -0.7054360000 
 H        3.5174020000    -2.6502740000     0.0575180000 
 H        3.0995110000    -2.8099590000    -1.6678360000 
*
