! RI PBE def2-SVP def2-SVP/J NBO PAL2
% maxcore 2000
% output
    # printlevel mini
    print[ P_Basis ] 0
    print[ P_SCFInfo ] 1
    print[ P_SCFIterInfo ] 1
    print[ P_OrbEn ] 0
    print[ P_Cartesian ] 0
end
*xyz 0 1
 C        4.4756520000     1.1523410000    -1.1131100000 
 C        3.5902870000     0.3018530000    -0.2557470000 
 C        2.6624970000    -0.4974220000    -0.7734310000 
 C        3.8445150000     0.4130500000     1.2092950000 
 C        3.5994270000     1.7659180000     1.9173830000 
 N        3.1301060000     1.0166190000     3.0920330000 
 C        2.8825050000    -0.1697610000     2.2551120000 
 H        5.5291500000     0.8969770000    -0.9576050000 
 H        4.3695520000     2.2113380000    -0.8551940000 
 H        4.2456360000     1.0332270000    -2.1724390000 
 H        2.5126240000    -0.5628390000    -1.8455260000 
 H        2.0272730000    -1.1169200000    -0.1511790000 
 H        4.8679630000     0.0861390000     1.4243870000 
 H        2.8140180000     2.3399980000     1.4061500000 
 H        4.4593590000     2.4160250000     2.0989290000 
 H        2.3153660000     1.3996940000     3.5535140000 
 H        1.8574870000    -0.2322730000     1.8676740000 
 H        3.1488620000    -1.1232750000     2.7180450000 
*
