! RI PBE def2-SVP def2-SVP/J NBO PAL2
% maxcore 2000
% output
    # printlevel mini
    print[ P_Basis ] 0
    print[ P_SCFInfo ] 1
    print[ P_SCFIterInfo ] 1
    print[ P_OrbEn ] 0
    print[ P_Cartesian ] 0
end
*xyz 0 1
 C        0.9038740000     0.0849450000    -0.0576330000 
 C        2.4275530000     0.0555220000    -0.0123930000 
 C        2.9612250000     1.2752770000     0.7274660000 
 C        2.9044130000    -1.2781100000     0.5426580000 
 C        4.3979740000    -1.5808090000     0.7612990000 
 N        4.0314350000    -2.3346690000     1.9711930000 
 C        2.7370970000    -1.6364820000     2.0331320000 
 H        0.5378830000     1.0098450000    -0.5105330000 
 H        0.4839730000     0.0235750000     0.9514850000 
 H        0.5054740000    -0.7533600000    -0.6350800000 
 H        2.7937270000     0.1113350000    -1.0468340000 
 H        2.6013300000     1.3071860000     1.7597490000 
 H        2.6230260000     2.1920240000     0.2378060000 
 H        4.0527940000     1.3003670000     0.7523230000 
 H        2.4692250000    -2.0800450000    -0.0609280000 
 H        4.9806310000    -0.6721820000     0.9620290000 
 H        4.9135460000    -2.1655730000    -0.0058320000 
 H        4.6379190000    -2.1998930000     2.7696750000 
 H        2.7429820000    -0.7457160000     2.6753960000 
 H        1.8894080000    -2.2672470000     2.3141240000 
*
