! RI PBE def2-SVP def2-SVP/J NBO PAL2
% maxcore 2000
% output
    # printlevel mini
    print[ P_Basis ] 0
    print[ P_SCFInfo ] 1
    print[ P_SCFIterInfo ] 1
    print[ P_OrbEn ] 0
    print[ P_Cartesian ] 0
end
*xyz 0 1
 C        0.9665740000    -0.0964010000    -0.0390450000 
 C        2.4172010000    -0.0873750000    -0.0119030000 
 C        3.6205260000    -0.0798250000     0.0070590000 
 C        5.0632920000    -0.0712720000     0.0443190000 
 C        5.7979670000     0.9436140000     0.9506600000 
 N        6.7752790000    -0.1075510000     1.2691880000 
 C        5.8125240000    -1.1439360000     0.8684890000 
 H        0.5910650000     0.0131600000    -1.0596410000 
 H        0.5573090000     0.7225320000     0.5581550000 
 H        0.5722560000    -1.0328200000     0.3639940000 
 H        5.4737390000    -0.0285740000    -0.9676380000 
 H        5.1621570000     1.2426910000     1.7932100000 
 H        6.2121070000     1.8347160000     0.4730020000 
 H        7.0794170000    -0.1433730000     2.2331590000 
 H        5.1813830000    -1.5171150000     1.6845700000 
 H        6.2387850000    -1.9888890000     0.3225140000 
*
