! RI PBE def2-SVP def2-SVP/J NBO PAL2
% maxcore 2000
% output
    # printlevel mini
    print[ P_Basis ] 0
    print[ P_SCFInfo ] 1
    print[ P_SCFIterInfo ] 1
    print[ P_OrbEn ] 0
    print[ P_Cartesian ] 0
end
*xyz 0 1
 C        3.4867150000    -0.7242500000     1.6721550000 
 C        3.0155450000    -0.3341740000     0.2806600000 
 C        3.4350070000     1.0685510000    -0.1469320000 
 C        4.9226170000     1.2480990000    -0.2715920000 
 N        5.4867330000     2.5857260000    -0.4440860000 
 C        5.7280050000     1.8606890000     0.8036880000 
 C        7.1441920000     1.4597630000     1.0836030000 
 H        3.1371850000    -1.7236250000     1.9413510000 
 H        3.1084340000    -0.0269000000     2.4255460000 
 H        4.5768620000    -0.7241270000     1.7414130000 
 H        1.9240380000    -0.4028700000     0.2330070000 
 H        3.3944070000    -1.0570780000    -0.4509790000 
 H        3.0457450000     1.8048850000     0.5685980000 
 H        2.9715960000     1.2996620000    -1.1136890000 
 H        5.4162860000     0.5016010000    -0.8933470000 
 H        4.7588810000     3.2818570000    -0.3150510000 
 H        5.1604620000     2.1903970000     1.6726110000 
 H        7.6373930000     1.1466070000     0.1615180000 
 H        7.1850460000     0.6329910000     1.7984720000 
 H        7.7124510000     2.2956870000     1.5001660000 
*
