! RI PBE def2-SVP def2-SVP/J NBO PAL2
% maxcore 2000
% output
    # printlevel mini
    print[ P_Basis ] 0
    print[ P_SCFInfo ] 1
    print[ P_SCFIterInfo ] 1
    print[ P_OrbEn ] 0
    print[ P_Cartesian ] 0
end
*xyz 0 1
 C        0.9984780000     0.7945160000    -0.1851800000 
 C        2.4858610000     0.8573130000    -0.1136490000 
 C        3.2246880000     0.3077280000     0.8439490000 
 C        4.6954110000     0.3647500000     0.9538870000 
 N        5.5064570000     1.2608070000     0.1407460000 
 C        5.3777160000     1.5305510000     1.5707550000 
 C        6.6152970000     1.3869470000     2.4017200000 
 H        0.6687360000     0.3194160000    -1.1146050000 
 H        0.5577720000     1.7966680000    -0.1736780000 
 H        0.5820900000     0.2312370000     0.6521160000 
 H        2.9785770000     1.3898950000    -0.9261250000 
 H        2.7255390000    -0.2544500000     1.6325860000 
 H        5.1676430000    -0.6031260000     1.1173810000 
 H        4.9101990000     1.8871840000    -0.3893880000 
 H        4.7146660000     2.3475260000     1.8483010000 
 H        7.2107540000     0.5420180000     2.0508910000 
 H        6.3655740000     1.2258230000     3.4538500000 
 H        7.2355220000     2.2848760000     2.3342520000 
*
