! RI PBE def2-SVP def2-SVP/J NBO PAL2
% maxcore 2000
% output
    # printlevel mini
    print[ P_Basis ] 0
    print[ P_SCFInfo ] 1
    print[ P_SCFIterInfo ] 1
    print[ P_OrbEn ] 0
    print[ P_Cartesian ] 0
end
*xyz 0 1
 C        0.9509640000    -0.2253250000     0.1637940000 
 C        2.4496430000     0.0464520000     0.1050700000 
 C        2.8513370000     1.0622530000     1.1648320000 
 C        3.2072080000    -1.2634080000     0.1655820000 
 N        4.6612790000    -1.3260800000     0.2830450000 
 C        3.8302570000    -1.8044350000     1.3901730000 
 C        3.8815330000    -3.2736760000     1.6824360000 
 H        0.3781530000     0.6976840000     0.0445130000 
 H        0.6754240000    -0.6688600000     1.1252650000 
 H        0.6403020000    -0.9161240000    -0.6240530000 
 H        2.6708810000     0.4858080000    -0.8777000000 
 H        2.5455770000     0.7390130000     2.1633740000 
 H        2.3662900000     2.0210860000     0.9689860000 
 H        3.9289440000     1.2488420000     1.1844210000 
 H        2.8251290000    -1.9988370000    -0.5415070000 
 H        5.0355300000    -0.4074160000     0.4974930000 
 H        3.7871490000    -1.1635010000     2.2676410000 
 H        3.9356100000    -3.8425950000     0.7523480000 
 H        2.9946850000    -3.5953500000     2.2353990000 
 H        4.7626950000    -3.5231490000     2.2796970000 
*
