! RI PBE def2-SVP def2-SVP/J NBO PAL2
% maxcore 2000
% output
    # printlevel mini
    print[ P_Basis ] 0
    print[ P_SCFInfo ] 1
    print[ P_SCFIterInfo ] 1
    print[ P_OrbEn ] 0
    print[ P_Cartesian ] 0
end
*xyz 0 1
 C        1.0740590000    -0.0327190000    -0.0165030000 
 C        2.5240550000    -0.0212370000    -0.0435530000 
 C        3.7278790000    -0.0091780000    -0.0624470000 
 C        5.1616740000    -0.0189520000    -0.0857910000 
 N        5.8742040000    -0.5550230000    -1.2573130000 
 C        5.9046910000     0.8788870000    -1.0084050000 
 C        7.2265210000     1.4712280000    -0.6286410000 
 H        0.6753940000    -0.8509660000    -0.6217780000 
 H        0.6629410000     0.9035030000    -0.4027100000 
 H        0.7067930000    -0.1639470000     1.0044820000 
 H        5.6379410000    -0.2730460000     0.8573440000 
 H        5.1966110000    -0.7757910000    -1.9796420000 
 H        5.2741250000     1.4988040000    -1.6410890000 
 H        7.7819700000     0.7822430000     0.0102340000 
 H        7.0932890000     2.4151730000    -0.0941570000 
 H        7.8316730000     1.6656110000    -1.5180500000 
*
