! RI PBE def2-SVP def2-SVP/J NBO PAL2
% maxcore 2000
% output
    # printlevel mini
    print[ P_Basis ] 0
    print[ P_SCFInfo ] 1
    print[ P_SCFIterInfo ] 1
    print[ P_OrbEn ] 0
    print[ P_Cartesian ] 0
end
*xyz 0 1
 C        1.5766890000    -0.4995960000     0.6198220000 
 C        1.7475630000    -1.2337250000    -0.7007530000 
 C        2.7651960000    -0.6048030000    -1.6464130000 
 C        4.1944100000    -0.5872040000    -1.1411120000 
 N        4.7920550000    -1.8375820000    -0.7551320000 
 C        5.1410960000     0.3828680000    -1.7800380000 
 C        4.6798790000     0.6040110000    -0.3694900000 
 H        2.5045340000    -0.4816880000     1.1958560000 
 H        0.8098270000    -0.9731780000     1.2373930000 
 H        1.2752430000     0.5391170000     0.4561210000 
 H        2.0282560000    -2.2760280000    -0.5085930000 
 H        0.7824870000    -1.2821790000    -1.2157380000 
 H        2.7444590000    -1.1510160000    -2.5986050000 
 H        2.4589810000     0.4220670000    -1.8782060000 
 H        4.7664600000    -2.4997300000    -1.5225400000 
 H        4.2946170000    -2.2550640000     0.0224280000 
 H        4.7552070000     1.0362960000    -2.5535900000 
 H        6.1600640000     0.0472520000    -1.9226550000 
 H        3.9814400000     1.4099150000    -0.1803630000 
 H        5.3938480000     0.4172780000     0.4225180000 
*
