! RI PBE def2-SVP def2-SVP/J NBO PAL2
% maxcore 2000
% output
    # printlevel mini
    print[ P_Basis ] 0
    print[ P_SCFInfo ] 1
    print[ P_SCFIterInfo ] 1
    print[ P_OrbEn ] 0
    print[ P_Cartesian ] 0
end
*xyz 0 1
 C        1.3770770000    -0.4122710000    -0.7880340000 
 C        2.4401320000    -0.0465190000    -0.0856930000 
 C        3.1532630000    -0.9021890000     0.9071580000 
 C        4.6151660000    -1.1484910000     0.5314040000 
 C        5.3535930000    -1.9556770000     1.5599240000 
 C        6.8006160000    -1.7711790000     1.7660030000 
 N        5.8466890000    -1.3225360000     2.7801670000 
 H        0.9077570000     0.2572060000    -1.4996070000 
 H        0.9340750000    -1.3970240000    -0.6725860000 
 H        2.8508780000     0.9513960000    -0.2364280000 
 H        2.6332310000    -1.8598800000     1.0109010000 
 H        3.1208520000    -0.4206200000     1.8926760000 
 H        5.1285080000    -0.1881810000     0.3935170000 
 H        4.6557500000    -1.6606970000    -0.4363900000 
 H        4.9439440000    -2.9478660000     1.7388670000 
 H        7.3002030000    -1.0235620000     1.1566660000 
 H        7.4246010000    -2.6076880000     2.0613040000 
 H        5.7263760000    -0.3160030000     2.7173710000 
*
