! RI PBE def2-SVP def2-SVP/J NBO PAL2
% maxcore 2000
% output
    # printlevel mini
    print[ P_Basis ] 0
    print[ P_SCFInfo ] 1
    print[ P_SCFIterInfo ] 1
    print[ P_OrbEn ] 0
    print[ P_Cartesian ] 0
end
*xyz 0 1
 C        1.2030220000    -0.0259750000     0.4203340000 
 C        2.4655580000    -0.1074670000    -0.0082140000 
 C        2.9596560000    -1.2973520000    -0.6214560000 
 C        3.4135630000    -2.2796230000    -1.1464910000 
 C        3.4488540000     1.0085210000     0.1026030000 
 C        3.3674790000     1.9973010000     1.1897770000 
 N        4.4356150000     0.9998330000     1.1843030000 
 H        0.5266350000    -0.8669100000     0.3308060000 
 H        0.8210370000     0.8869220000     0.8597420000 
 H        3.8082790000    -3.1528460000    -1.6096760000 
 H        3.8746530000     1.3167860000    -0.8489150000 
 H        2.5690170000     1.8940980000     1.9166630000 
 H        3.6913080000     3.0166940000     1.0106940000 
 H        4.2114430000     0.2556200000     1.8382400000 
*
