! RI PBE def2-SVP def2-SVP/J NBO PAL2
% maxcore 2000
% output
    # printlevel mini
    print[ P_Basis ] 0
    print[ P_SCFInfo ] 1
    print[ P_SCFIterInfo ] 1
    print[ P_OrbEn ] 0
    print[ P_Cartesian ] 0
end
*xyz 0 1
 C        1.3047890000    -0.5388630000    -0.3914130000 
 C        2.4093930000    -0.2078270000     0.2698930000 
 C        3.1843270000     1.0262730000     0.0705470000 
 C        2.6098450000     2.1953990000    -0.2166580000 
 C        4.6541790000     0.8680400000     0.2441360000 
 C        5.5266100000     1.9797430000     0.6519900000 
 N        5.2234370000     0.9080800000     1.5998320000 
 H        0.7821880000    -1.4650080000    -0.1838760000 
 H        0.8966450000     0.0972200000    -1.1698020000 
 H        2.8155070000    -0.9055720000     1.0000810000 
 H        1.5312630000     2.2930070000    -0.2615370000 
 H        3.1977040000     3.0843640000    -0.4096640000 
 H        5.0935630000     0.0764080000    -0.3589330000 
 H        5.0754320000     2.9524000000     0.8149900000 
 H        6.5541450000     2.0066350000     0.3064120000 
 H        4.5079720000     1.2324120000     2.2446020000 
*
