! RI PBE def2-SVP def2-SVP/J NBO PAL2
% maxcore 2000
% output
    # printlevel mini
    print[ P_Basis ] 0
    print[ P_SCFInfo ] 1
    print[ P_SCFIterInfo ] 1
    print[ P_OrbEn ] 0
    print[ P_Cartesian ] 0
end
*xyz 0 1
 C        0.8892370000     0.0193540000    -0.1763020000 
 C        2.1696810000     0.0998620000     0.1873960000 
 C        2.9788050000     1.2533560000     0.0527040000 
 C        3.7007160000     2.2163010000    -0.0490420000 
 C        4.5450910000     3.3670010000    -0.1481140000 
 C        4.3611980000     4.3170850000    -1.2764540000 
 N        3.9840280000     4.7080240000     0.0691930000 
 H        0.3321500000    -0.8987260000    -0.0381490000 
 H        0.3699700000     0.8624760000    -0.6159300000 
 H        2.6556580000    -0.7686300000     0.6259630000 
 H        5.5439650000     3.2454280000     0.2593150000 
 H        3.5841640000     4.0815550000    -1.9953310000 
 H        5.2317320000     4.8243830000    -1.6777300000 
 H        2.9791160000     4.6317410000     0.1885810000 
*
