! RI PBE def2-SVP def2-SVP/J NBO PAL2
% maxcore 2000
% output
    # printlevel mini
    print[ P_Basis ] 0
    print[ P_SCFInfo ] 1
    print[ P_SCFIterInfo ] 1
    print[ P_OrbEn ] 0
    print[ P_Cartesian ] 0
end
*xyz 0 1
 C        0.8855980000     0.2656690000     0.1533880000 
 C        2.0788430000     0.1326910000     0.1475810000 
 C        3.5255920000     0.0023400000     0.1461090000 
 C        4.2450730000     1.3493240000     0.2696340000 
 C        5.7376950000     1.1950730000     0.2816910000 
 C        6.5845790000     2.1491470000     1.0180880000 
 N        6.4262120000     0.7778890000     1.5005170000 
 H       -0.1727770000     0.3764470000     0.1560200000 
 H        3.8409800000    -0.4973210000    -0.7764710000 
 H        3.8290120000    -0.6561330000     0.9672180000 
 H        3.9193650000     1.8524500000     1.1865130000 
 H        3.9435680000     1.9925210000    -0.5630870000 
 H        6.1563750000     0.7394100000    -0.6135940000 
 H        6.0847650000     2.9496660000     1.5555400000 
 H        7.5753570000     2.3960610000     0.6528000000 
 H        5.7722730000     0.7605660000     2.2775320000 
*
