! RI PBE def2-SVP def2-SVP/J NBO PAL2
% maxcore 2000
% output
    # printlevel mini
    print[ P_Basis ] 0
    print[ P_SCFInfo ] 1
    print[ P_SCFIterInfo ] 1
    print[ P_OrbEn ] 0
    print[ P_Cartesian ] 0
end
*xyz 0 1
 C        0.5986530000    -1.2210100000     0.2552440000 
 C        1.8971740000    -1.1942180000    -0.4753040000 
 C        3.0862270000    -1.4217170000     0.0690040000 
 C        4.3868120000    -1.3955250000    -0.6665450000 
 C        5.1292260000    -2.7062020000    -0.5916160000 
 C        4.9528000000    -3.7231270000    -1.6414750000 
 N        6.2137490000    -2.9883350000    -1.5232220000 
 H        0.0872150000    -0.2553520000     0.1884100000 
 H        0.7396080000    -1.4585680000     1.3114840000 
 H       -0.0805880000    -1.9645660000    -0.1739670000 
 H        1.8488210000    -0.9647090000    -1.5396050000 
 H        3.1402600000    -1.6515200000     1.1331480000 
 H        5.0294350000    -0.6091970000    -0.2477180000 
 H        4.2132020000    -1.1384370000    -1.7177220000 
 H        5.3347440000    -3.0531740000     0.4187510000 
 H        4.2833500000    -3.4801550000    -2.4617210000 
 H        5.0136970000    -4.7791510000    -1.4020750000 
 H        6.2586140000    -2.2606270000    -2.2297810000 
*
