! RI PBE def2-SVP def2-SVP/J NBO PAL2
% maxcore 2000
% output
    # printlevel mini
    print[ P_Basis ] 0
    print[ P_SCFInfo ] 1
    print[ P_SCFIterInfo ] 1
    print[ P_OrbEn ] 0
    print[ P_Cartesian ] 0
end
*xyz 0 1
 C        2.4267350000    -1.0292510000     2.1838540000 
 C        2.3315310000     0.2218540000     1.3779520000 
 C        3.3187220000     1.0112430000     0.9428910000 
 C        3.0003620000     2.2447940000     0.1503810000 
 C        4.7463710000     0.7317250000     1.2286120000 
 C        5.7854400000     0.8532160000     0.1763660000 
 N        5.7466480000     1.8023700000     1.2771510000 
 H        1.8045850000    -0.9570620000     3.0816290000 
 H        3.4415770000    -1.2687850000     2.4992240000 
 H        2.0492520000    -1.8846860000     1.6134580000 
 H        1.3179890000     0.5134650000     1.1091080000 
 H        1.9430620000     2.2678820000    -0.1142350000 
 H        3.5747200000     2.2997300000    -0.7799170000 
 H        3.2142400000     3.1571820000     0.7177440000 
 H        4.9241830000    -0.0223050000     1.9858910000 
 H        5.4752930000     1.1823200000    -0.8101140000 
 H        6.6274780000     0.1692480000     0.1824650000 
 H        5.3375990000     2.6765500000     0.9651190000 
*
