! RI PBE def2-SVP def2-SVP/J NBO PAL2
% maxcore 2000
% output
    # printlevel mini
    print[ P_Basis ] 0
    print[ P_SCFInfo ] 1
    print[ P_SCFIterInfo ] 1
    print[ P_OrbEn ] 0
    print[ P_Cartesian ] 0
end
*xyz 0 1
 C        1.0420050000    -0.2866550000    -0.0295280000 
 C        2.5489130000    -0.0184160000    -0.0896510000 
 C        3.0255900000     0.5371010000     1.1704230000 
 C        3.4033740000     0.9679500000     2.2262740000 
 C        3.3054720000    -1.2784600000    -0.4801210000 
 C        4.7271260000    -1.4750410000    -0.1578560000 
 N        3.6947450000    -2.2651900000     0.5147470000 
 H        0.4928970000     0.6240930000     0.2128320000 
 H        0.8156740000    -1.0371170000     0.7300520000 
 H        0.6903130000    -0.6580570000    -0.9945190000 
 H        2.7339590000     0.7287110000    -0.8725840000 
 H        3.7354270000     1.3663080000     3.1559630000 
 H        2.9246420000    -1.7178470000    -1.3992260000 
 H        5.2224220000    -0.6954930000     0.4121510000 
 H        5.3632750000    -2.0307740000    -0.8379840000 
 H        3.5430640000    -1.8819140000     1.4447250000 
*
