! RI PBE def2-SVP def2-SVP/J NBO PAL2
% maxcore 2000
% output
    # printlevel mini
    print[ P_Basis ] 0
    print[ P_SCFInfo ] 1
    print[ P_SCFIterInfo ] 1
    print[ P_OrbEn ] 0
    print[ P_Cartesian ] 0
end
*xyz 0 1
 C        0.9771390000     0.0013710000    -0.0473830000 
 C        2.4271400000     0.0540580000    -0.0552530000 
 C        3.6285310000     0.0993520000    -0.0619310000 
 C        5.0832350000     0.1729530000    -0.0790700000 
 C        5.6118850000     1.3578620000    -0.8519980000 
 C        6.9048540000     1.2509460000    -1.5510560000 
 N        5.6545760000     1.3250520000    -2.3049260000 
 H        0.5534610000     0.8272900000    -0.6242480000 
 H        0.5864990000     0.0684940000     0.9711390000 
 H        0.6151710000    -0.9325980000    -0.4846070000 
 H        5.4935870000    -0.7484690000    -0.5110040000 
 H        5.4573710000     0.2197910000     0.9505350000 
 H        5.3163300000     2.3230750000    -0.4500880000 
 H        7.4257110000     0.2991450000    -1.4960740000 
 H        7.5509030000     2.1168980000    -1.6454900000 
 H        5.3858160000     0.4059700000    -2.6420550000 
*
