! RI PBE def2-SVP def2-SVP/J NBO PAL2
% maxcore 2000
% output
    # printlevel mini
    print[ P_Basis ] 0
    print[ P_SCFInfo ] 1
    print[ P_SCFIterInfo ] 1
    print[ P_OrbEn ] 0
    print[ P_Cartesian ] 0
end
*xyz 0 1
 C        1.9521200000    -1.3048340000    -0.5762580000 
 C        2.5622670000    -0.0553320000     0.0497350000 
 C        3.0712370000     0.9116930000    -0.9678600000 
 C        4.3305720000     1.3225690000    -1.0680720000 
 C        4.8650360000     2.2584620000    -2.0778560000 
 C        5.3056220000     1.7665270000    -3.4053460000 
 N        4.1261280000     2.6165710000    -3.2770720000 
 H        1.5576960000    -1.9765020000     0.1896540000 
 H        2.6961560000    -1.8534270000    -1.1585860000 
 H        1.1289370000    -1.0471450000    -1.2481480000 
 H        3.3755770000    -0.3340170000     0.7265620000 
 H        1.8003440000     0.4399670000     0.6642530000 
 H        2.3274720000     1.2918340000    -1.6686670000 
 H        5.0590300000     0.9626500000    -0.3421360000 
 H        5.4277580000     3.0913600000    -1.6603580000 
 H        5.1607450000     0.7106790000    -3.6111060000 
 H        6.1558600000     2.2250730000    -3.8990630000 
 H        3.2878330000     2.0501620000    -3.3521570000 
*
