! RI PBE def2-SVP def2-SVP/J NBO PAL2
% maxcore 2000
% output
    # printlevel mini
    print[ P_Basis ] 0
    print[ P_SCFInfo ] 1
    print[ P_SCFIterInfo ] 1
    print[ P_OrbEn ] 0
    print[ P_Cartesian ] 0
end
*xyz 0 1
 C        1.0608620000     0.1816530000    -0.1600570000 
 C        2.5429850000     0.0247730000     0.1718410000 
 C        3.0822290000    -1.2694330000    -0.2147980000 
 C        3.5143450000    -2.3455220000    -0.5409220000 
 C        4.0209810000    -3.6227690000    -0.9533390000 
 C        4.0868470000    -4.7405480000     0.0206670000 
 N        3.1119500000    -4.7722310000    -1.0571720000 
 H        0.7042280000     1.1674230000     0.1458390000 
 H        0.4650300000    -0.5732820000     0.3559620000 
 H        0.8889590000     0.0707120000    -1.2319570000 
 H        2.7007630000     0.1738120000     1.2456070000 
 H        3.1195810000     0.8089370000    -0.3306720000 
 H        4.7656060000    -3.5920320000    -1.7430530000 
 H        3.7489130000    -4.5331710000     1.0301310000 
 H        4.8894330000    -5.4653830000    -0.0628860000 
 H        2.1984960000    -4.5010480000    -0.7081020000 
*
