! RI PBE def2-SVP def2-SVP/J NBO PAL2
% maxcore 2000
% output
    # printlevel mini
    print[ P_Basis ] 0
    print[ P_SCFInfo ] 1
    print[ P_SCFIterInfo ] 1
    print[ P_OrbEn ] 0
    print[ P_Cartesian ] 0
end
*xyz 0 1
 C        3.0525870000     0.8065740000    -0.4314810000 
 C        2.2227800000    -0.4186880000    -0.0803410000 
 C        2.3753440000    -0.8849500000     1.3628150000 
 C        3.7593140000    -1.4099880000     1.7169290000 
 C        3.8547450000    -1.9231240000     3.1450320000 
 C        5.2227860000    -2.4869180000     3.5193090000 
 N        6.3394210000    -1.5563670000     3.5181470000 
 H        2.8662890000     1.1294570000    -1.4584280000 
 H        4.1240410000     0.6136590000    -0.3404260000 
 H        2.8105680000     1.6453750000     0.2281430000 
 H        2.4838030000    -1.2434930000    -0.7540580000 
 H        1.1666280000    -0.1989740000    -0.2685600000 
 H        1.6404620000    -1.6738420000     1.5611720000 
 H        2.1195700000    -0.0581970000     2.0379970000 
 H        4.5021990000    -0.6196920000     1.5625880000 
 H        4.0245230000    -2.2203560000     1.0246240000 
 H        3.1006300000    -2.7057140000     3.2967870000 
 H        3.5982980000    -1.1146220000     3.8424360000 
 H        5.4740590000    -3.3072800000     2.8373980000 
 H        5.1639060000    -2.9333380000     4.5171280000 
 H        6.4871140000    -1.1698170000     2.5945720000 
 H        6.1537230000    -0.7766960000     4.1381260000 
*
