! RI PBE def2-SVP def2-SVP/J NBO PAL2
% maxcore 2000
% output
    # printlevel mini
    print[ P_Basis ] 0
    print[ P_SCFInfo ] 1
    print[ P_SCFIterInfo ] 1
    print[ P_OrbEn ] 0
    print[ P_Cartesian ] 0
end
*xyz 0 1
 C        1.0326550000     0.1912520000     0.2291140000 
 C        2.3372440000    -0.0191700000     0.0737630000 
 C        3.1122660000    -1.0559330000     0.8544950000 
 C        3.6883250000    -2.0888900000     0.0078750000 
 C        4.1574950000    -2.9349810000    -0.7003120000 
 C        3.0835480000     0.7674720000    -0.8590920000 
 N        3.7044340000     1.4019210000    -1.5927140000 
 H        0.4582820000    -0.3986780000     0.9335380000 
 H        0.5114620000     0.9502950000    -0.3401100000 
 H        2.4428140000    -1.5087120000     1.5907280000 
 H        3.9147620000    -0.5602660000     1.4127430000 
 H        4.5782150000    -3.6822100000    -1.3310380000 
*
