! RI PBE def2-SVP def2-SVP/J NBO PAL2
% maxcore 2000
% output
    # printlevel mini
    print[ P_Basis ] 0
    print[ P_SCFInfo ] 1
    print[ P_SCFIterInfo ] 1
    print[ P_OrbEn ] 0
    print[ P_Cartesian ] 0
end
*xyz 0 1
 C        1.0728880000    -0.1579100000     0.5283890000 
 C        2.3777940000    -0.0240250000     0.2964780000 
 C        2.9310420000     0.4208400000    -0.9653070000 
 C        4.2354060000     0.5609550000    -1.1996040000 
 C        4.7986930000     1.0464670000    -2.5012670000 
 C        5.7586870000     0.1118700000    -3.0776940000 
 N        6.5197270000    -0.6274790000    -3.5196140000 
 H        0.6989210000    -0.4963400000     1.4866480000 
 H        0.3373230000     0.0662790000    -0.2374440000 
 H        3.0898100000    -0.2581060000     1.0845410000 
 H        2.2189340000     0.6497960000    -1.7567170000 
 H        4.9553990000     0.3253310000    -0.4204210000 
 H        5.3169550000     2.0033440000    -2.3636160000 
 H        3.9997220000     1.2173470000    -3.2276710000 
*
