! RI PBE def2-SVP def2-SVP/J NBO PAL2
% maxcore 2000
% output
    # printlevel mini
    print[ P_Basis ] 0
    print[ P_SCFInfo ] 1
    print[ P_SCFIterInfo ] 1
    print[ P_OrbEn ] 0
    print[ P_Cartesian ] 0
end
*xyz 0 1
 C        1.4790070000    -0.4368750000     1.0313580000 
 C        2.3341120000     0.0117920000     0.1278430000 
 C        3.0837700000    -0.8816170000    -0.8308300000 
 C        2.7132530000    -0.5869390000    -2.2644030000 
 C        2.1283290000    -1.4621080000    -3.0648920000 
 C        4.5273440000    -0.7124780000    -0.6443800000 
 N        5.6581080000    -0.5590880000    -0.5036610000 
 H        0.9487500000     0.2421970000     1.6880500000 
 H        1.2767560000    -1.4965760000     1.1496700000 
 H        2.5276640000     1.0763860000     0.0288140000 
 H        2.8434790000    -1.9259250000    -0.6075480000 
 H        2.9466000000     0.4147540000    -2.6148190000 
 H        1.8927100000    -2.4689950000    -2.7354490000 
 H        1.8635190000    -1.2021270000    -4.0826540000 
*
