! RI PBE def2-SVP def2-SVP/J NBO PAL2
% maxcore 2000
% output
    # printlevel mini
    print[ P_Basis ] 0
    print[ P_SCFInfo ] 1
    print[ P_SCFIterInfo ] 1
    print[ P_OrbEn ] 0
    print[ P_Cartesian ] 0
end
*xyz 0 1
 C        1.3435570000    -1.0692400000     0.0342090000 
 C        2.1834800000    -0.0508640000     0.0927660000 
 C        2.9523960000     0.4548540000    -1.1098550000 
 C        2.6280350000     1.8486780000    -1.4089840000 
 C        2.3389280000     2.9882250000    -1.6387420000 
 C        4.3962790000     0.2931500000    -0.8969620000 
 N        5.5208310000     0.1438370000    -0.7161140000 
 H        0.8042330000    -1.4000560000     0.9134190000 
 H        1.1618580000    -1.6095230000    -0.8892510000 
 H        2.3610620000     0.4870060000     1.0182640000 
 H        2.6872520000    -0.1622030000    -1.9769370000 
 H        2.0868790000     4.0016360000    -1.8465020000 
*
