! RI PBE def2-SVP def2-SVP/J NBO PAL2
% maxcore 2000
% output
    # printlevel mini
    print[ P_Basis ] 0
    print[ P_SCFInfo ] 1
    print[ P_SCFIterInfo ] 1
    print[ P_OrbEn ] 0
    print[ P_Cartesian ] 0
end
*xyz 0 1
 C        1.3140880000    -0.3936360000     0.8699570000 
 C        2.1508710000     0.1792000000     0.0176440000 
 C        2.9574300000    -0.5584180000    -1.0104760000 
 C        4.4232120000    -0.4092950000    -0.7736870000 
 C        5.2707110000     0.1489320000    -1.6388120000 
 C        6.6612590000     0.2815950000    -1.3757670000 
 N        7.7915360000     0.3994860000    -1.1838650000 
 H        0.7567210000     0.1896390000     1.5933870000 
 H        1.1518400000    -1.4672030000     0.8722770000 
 H        2.2923220000     1.2573190000     0.0459160000 
 H        2.7117680000    -0.1938760000    -2.0137080000 
 H        2.6946420000    -1.6216630000    -0.9739710000 
 H        4.8029880000    -0.7718550000     0.1779850000 
 H        4.9270910000     0.5281730000    -2.5966800000 
*
