! RI PBE def2-SVP def2-SVP/J NBO PAL2
% maxcore 2000
% output
    # printlevel mini
    print[ P_Basis ] 0
    print[ P_SCFInfo ] 1
    print[ P_SCFIterInfo ] 1
    print[ P_OrbEn ] 0
    print[ P_Cartesian ] 0
end
*xyz 0 1
 C        1.2635360000     0.4800300000    -1.0629010000 
 C        1.9196710000    -0.2247700000    -0.1530010000 
 C        2.8322480000     0.3579360000     0.8729850000 
 C        4.2672200000    -0.0987710000     0.7550620000 
 C        4.7809250000    -0.7539190000    -0.2846890000 
 C        5.1081570000     0.2337320000     1.8646630000 
 N        5.7528900000     0.5207740000     2.7753120000 
 H        0.5957120000     0.0060340000    -1.7726680000 
 H        1.3650470000     1.5590460000    -1.1269310000 
 H        1.7934050000    -1.3051680000    -0.1214430000 
 H        2.4776780000     0.0916650000     1.8761290000 
 H        2.8079570000     1.4521650000     0.8280150000 
 H        4.1616040000    -1.0020490000    -1.1380060000 
 H        5.8230590000    -1.0453970000    -0.3060260000 
*
