! RI PBE def2-SVP def2-SVP/J NBO PAL2
% maxcore 2000
% output
    # printlevel mini
    print[ P_Basis ] 0
    print[ P_SCFInfo ] 1
    print[ P_SCFIterInfo ] 1
    print[ P_OrbEn ] 0
    print[ P_Cartesian ] 0
end
*xyz 0 1
 C        1.6031020000     0.0883590000    -1.2599210000 
 C        2.4238770000     0.1260590000    -0.2232550000 
 C        3.1585430000    -1.0759170000     0.3042990000 
 C        4.5946130000    -0.8779270000     0.3435380000 
 C        5.7854720000    -0.6936880000     0.3734310000 
 C        7.1367260000    -0.4904850000     0.4073790000 
 N        8.2787720000    -0.3183040000     0.4369520000 
 H        1.0821280000     0.9764300000    -1.5969160000 
 H        1.4205010000    -0.8295070000    -1.8097580000 
 H        2.5985270000     1.0583170000     0.3062270000 
 H        2.9329380000    -1.9551460000    -0.3076220000 
 H        2.8186030000    -1.3044010000     1.3228370000 
*
