! RI PBE def2-SVP def2-SVP/J NBO PAL2
% maxcore 2000
% output
    # printlevel mini
    print[ P_Basis ] 0
    print[ P_SCFInfo ] 1
    print[ P_SCFIterInfo ] 1
    print[ P_OrbEn ] 0
    print[ P_Cartesian ] 0
end
*xyz 0 1
 C        0.8404530000    -0.0419160000    -0.0316280000 
 C        2.0449920000    -0.0570560000    -0.0379800000 
 C        3.4081480000    -0.0737200000    -0.0449720000 
 C        4.6132050000    -0.0883790000    -0.0511230000 
 C        6.0656630000    -0.0897370000    -0.0516670000 
 C        6.6381970000    -1.3298460000    -0.5706410000 
 N        7.1085170000    -2.2960500000    -0.9749870000 
 H       -0.2240670000    -0.0309980000    -0.0270450000 
 H        6.4438850000     0.0640960000     0.9654490000 
 H        6.4439090000     0.7426870000    -0.6560180000 
*
