! RI PBE def2-SVP def2-SVP/J NBO PAL2
% maxcore 2000
% output
    # printlevel mini
    print[ P_Basis ] 0
    print[ P_SCFInfo ] 1
    print[ P_SCFIterInfo ] 1
    print[ P_OrbEn ] 0
    print[ P_Cartesian ] 0
end
*xyz 0 1
 C        0.9085030000     0.0804390000    -0.0670820000 
 C        2.1052230000     0.0681360000     0.0102560000 
 C        3.5570200000     0.0728330000     0.1174350000 
 C        4.0508720000     1.1323610000     1.0518880000 
 C        4.8614700000     0.8862830000     2.0792240000 
 C        5.3352340000     1.9105710000     2.9435670000 
 N        5.7337400000     2.7236190000     3.6560950000 
 H       -0.1537660000     0.0856430000    -0.1367580000 
 H        3.9819030000     0.2520470000    -0.8788950000 
 H        3.9119360000    -0.9110740000     0.4382620000 
 H        3.7177800000     2.1474590000     0.8591060000 
 H        5.1985830000    -0.1216070000     2.3021010000 
*
