! RI PBE def2-SVP def2-SVP/J NBO PAL2
% maxcore 2000
% output
    # printlevel mini
    print[ P_Basis ] 0
    print[ P_SCFInfo ] 1
    print[ P_SCFIterInfo ] 1
    print[ P_OrbEn ] 0
    print[ P_Cartesian ] 0
end
*xyz 0 1
 C        0.7609350000    -0.5074280000    -0.7689490000 
 C        2.2432730000    -0.4663400000    -0.9204630000 
 C        2.9824100000     0.6366260000    -0.9257550000 
 C        4.4695900000     0.6871640000    -1.0600070000 
 C        4.9573300000     1.5574200000    -2.2170840000 
 C        4.5871010000     1.0147580000    -3.5842590000 
 N        5.1260960000     1.8681580000    -4.6343900000 
 H        0.2871340000    -0.9917860000    -1.6289990000 
 H        0.3420710000     0.4961880000    -0.6705450000 
 H        0.4688700000    -1.0853890000     0.1139500000 
 H        2.7454770000    -1.4271750000    -1.0313440000 
 H        2.4807540000     1.5996850000    -0.8168280000 
 H        4.8629150000    -0.3296480000    -1.1691270000 
 H        4.8961110000     1.0856180000    -0.1311990000 
 H        6.0449660000     1.6644680000    -2.1684050000 
 H        4.5427180000     2.5682660000    -2.1066860000 
 H        3.4960810000     0.8804180000    -3.6360910000 
 H        5.0285330000     0.0185770000    -3.7016640000 
 H        4.7088360000     2.7902390000    -4.5818210000 
 H        4.8957080000     1.4974900000    -5.5478240000 
*
