! RI PBE def2-SVP def2-SVP/J NBO PAL2
% maxcore 2000
% output
    # printlevel mini
    print[ P_Basis ] 0
    print[ P_SCFInfo ] 1
    print[ P_SCFIterInfo ] 1
    print[ P_OrbEn ] 0
    print[ P_Cartesian ] 0
end
*xyz 0 1
 C        1.0921140000    -0.1988850000     0.5040230000 
 C        2.5511930000     0.0304890000     0.3703870000 
 C        3.1625410000     1.0663300000    -0.2344280000 
 C        2.4958590000     2.1878350000    -0.8895610000 
 C        3.1259400000     3.2000150000    -1.4805940000 
 C        4.5956250000     1.0766120000    -0.2402070000 
 N        5.7469810000     1.1046220000    -0.2562830000 
 H        0.8200270000    -1.1568980000     0.0491300000 
 H        0.4827150000     0.5796650000     0.0492040000 
 H        0.8196990000    -0.2734520000     1.5618390000 
 H        3.1917050000    -0.7269300000     0.8128430000 
 H        1.4119870000     2.1706140000    -0.8797110000 
 H        4.2087510000     3.2567620000    -1.5135290000 
 H        2.5699030000     4.0021810000    -1.9491940000 
*
