! RI PBE def2-SVP def2-SVP/J NBO PAL2
% maxcore 2000
% output
    # printlevel mini
    print[ P_Basis ] 0
    print[ P_SCFInfo ] 1
    print[ P_SCFIterInfo ] 1
    print[ P_OrbEn ] 0
    print[ P_Cartesian ] 0
end
*xyz 0 1
 C        0.7073470000    -0.2793430000    -0.2041900000 
 C        2.1637380000    -0.1500340000     0.0894690000 
 C        2.7576890000     0.5817690000     1.0342610000 
 C        2.0276940000     1.4542630000     2.0096180000 
 C        4.2546260000     0.5746310000     1.1703750000 
 C        4.7583530000    -0.0263820000     2.4773250000 
 N        6.2110300000     0.0371430000     2.5297080000 
 H        0.4913650000     0.0112370000    -1.2376310000 
 H        0.0819110000     0.3266420000     0.4508890000 
 H        0.3821700000    -1.3200860000    -0.1013480000 
 H        2.8141430000    -0.7337130000    -0.5606730000 
 H        0.9672450000     1.5508110000     1.7818730000 
 H        2.4633640000     2.4588100000     2.0214340000 
 H        2.1121320000     1.0666250000     3.0299020000 
 H        4.6440410000     1.5978630000     1.1031460000 
 H        4.6903650000     0.0149890000     0.3354540000 
 H        4.3507400000    -1.0451050000     2.5760450000 
 H        4.3717270000     0.5514260000     3.3220490000 
 H        6.6134130000    -0.5316730000     1.7939390000 
 H        6.5545070000    -0.3332620000     3.4068470000 
*
