! RI PBE def2-SVP def2-SVP/J NBO PAL2
% maxcore 2000
% output
    # printlevel mini
    print[ P_Basis ] 0
    print[ P_SCFInfo ] 1
    print[ P_SCFIterInfo ] 1
    print[ P_OrbEn ] 0
    print[ P_Cartesian ] 0
end
*xyz 0 1
 C        0.0997210000     0.1473570000     0.1288640000 
 C        1.5681300000     0.3981360000     0.2001960000 
 C        2.4963640000    -0.3480190000     0.7992030000 
 C        2.2039580000    -1.6390780000     1.5050870000 
 C        3.9577120000     0.0513160000     0.7884590000 
 C        4.5475530000     0.0581310000     2.2024490000 
 N        4.1804650000     1.3037350000     0.0829000000 
 H       -0.4550910000     0.9849990000     0.5647500000 
 H       -0.2136710000    -0.7581520000     0.6485420000 
 H       -0.2295540000     0.0701140000    -0.9127940000 
 H        1.9133090000     1.2857520000    -0.3218220000 
 H        1.2340510000    -2.0493980000     1.2275620000 
 H        2.2135400000    -1.5219230000     2.5934160000 
 H        2.9619070000    -2.3911920000     1.2631080000 
 H        4.4876410000    -0.7234180000     0.2149610000 
 H        4.4663050000    -0.9119870000     2.6973190000 
 H        5.6074210000     0.3231660000     2.1649580000 
 H        4.0331810000     0.7987590000     2.8228460000 
 H        5.1751130000     1.4712380000    -0.0055330000 
 H        3.8041360000     2.0749620000     0.6247400000 
*
