! RI PBE def2-SVP def2-SVP/J NBO PAL2
% maxcore 2000
% output
    # printlevel mini
    print[ P_Basis ] 0
    print[ P_SCFInfo ] 1
    print[ P_SCFIterInfo ] 1
    print[ P_OrbEn ] 0
    print[ P_Cartesian ] 0
end
*xyz 0 1
 C        0.9170770000    -0.2989090000    -0.0504280000 
 C        2.3948020000    -0.2000050000     0.1063150000 
 C        3.0779500000     0.5328220000     0.9842600000 
 C        2.4921130000     1.4377410000     2.0184310000 
 C        4.5886330000     0.4619820000     0.9834450000 
 C        5.2155570000     1.7543170000     0.7298250000 
 N        5.6976690000     2.7792530000     0.5324260000 
 H        0.6175010000     0.0113180000    -1.0564450000 
 H        0.3678330000     0.3113980000     0.6654440000 
 H        0.5861350000    -1.3356230000     0.0668320000 
 H        2.9713510000    -0.8054550000    -0.5911020000 
 H        1.4045520000     1.4585260000     1.9901380000 
 H        2.8547940000     2.4616960000     1.8838610000 
 H        2.7988990000     1.1257390000     3.0227520000 
 H        4.9418190000    -0.2448850000     0.2289890000 
 H        4.9538030000     0.1078840000     1.9553750000 
*
