! RI PBE def2-SVP def2-SVP/J NBO PAL2
% maxcore 2000
% output
    # printlevel mini
    print[ P_Basis ] 0
    print[ P_SCFInfo ] 1
    print[ P_SCFIterInfo ] 1
    print[ P_OrbEn ] 0
    print[ P_Cartesian ] 0
end
*xyz 0 1
 C        0.5806170000     1.4033590000     1.3120820000 
 C        1.9484950000     0.8780820000     1.0560500000 
 C        3.0824560000     1.4629370000     1.4493320000 
 C        4.4041300000     0.9358810000     1.1878080000 
 C        5.5414230000     1.5124930000     1.5835560000 
 C        6.9029070000     0.9661010000     1.3227310000 
 N        7.7364840000     1.9691740000     0.6720510000 
 H       -0.0196260000     0.6847510000     1.8802830000 
 H        0.0434250000     1.5822340000     0.3745100000 
 H        0.6097940000     2.3402250000     1.8716980000 
 H        2.0153310000    -0.0582920000     0.5034270000 
 H        3.0309730000     2.3987950000     2.0042270000 
 H        4.4537670000     0.0003460000     0.6311990000 
 H        5.5080320000     2.4554170000     2.1263400000 
 H        6.8115690000     0.0201140000     0.7667100000 
 H        7.3797200000     0.7227320000     2.2806460000 
 H        7.3741540000     2.1786060000    -0.2500800000 
 H        8.6830400000     1.6298450000     0.5567320000 
*
