! RI PBE def2-SVP def2-SVP/J NBO PAL2
% maxcore 2000
% output
    # printlevel mini
    print[ P_Basis ] 0
    print[ P_SCFInfo ] 1
    print[ P_SCFIterInfo ] 1
    print[ P_OrbEn ] 0
    print[ P_Cartesian ] 0
end
*xyz 0 1
 C        0.8638970000     0.0507670000     0.1430820000 
 C        2.3459850000     0.0910710000     0.2028790000 
 C        3.1355160000    -0.9516600000     0.4823940000 
 C        4.5701460000    -0.8588070000     0.5279630000 
 C        5.3814640000    -1.8922040000     0.8064190000 
 C        6.7918660000    -1.7677640000     0.8435190000 
 N        7.9421180000    -1.6866570000     0.8785240000 
 H        0.5061890000     0.3582750000    -0.8449970000 
 H        0.4267430000     0.7528610000     0.8605960000 
 H        0.4763160000    -0.9466200000     0.3558370000 
 H        2.8166820000     1.0521490000     0.0012960000 
 H        2.6905160000    -1.9233180000     0.6875810000 
 H        5.0121240000     0.1127310000     0.3225910000 
 H        4.9793370000    -2.8782140000     1.0170150000 
*
