! RI PBE def2-SVP def2-SVP/J NBO PAL2
% maxcore 2000
% output
    # printlevel mini
    print[ P_Basis ] 0
    print[ P_SCFInfo ] 1
    print[ P_SCFIterInfo ] 1
    print[ P_OrbEn ] 0
    print[ P_Cartesian ] 0
end
*xyz 0 1
 C        1.1988980000     2.0531200000    -1.6230470000 
 C        2.6774580000     1.8969570000    -1.5459860000 
 C        3.3056050000     1.0369790000    -0.7415190000 
 C        4.7464350000     0.8328630000    -0.6394790000 
 C        5.2341100000    -0.1007110000     0.1821440000 
 C        5.6447680000     1.6948640000    -1.4839720000 
 N        7.0550570000     1.4884860000    -1.2125660000 
 H        0.8322730000     1.8545960000    -2.6357990000 
 H        0.8953810000     3.0767590000    -1.3788560000 
 H        0.6884000000     1.3739200000    -0.9374780000 
 H        3.2595150000     2.5383070000    -2.2039180000 
 H        2.7022580000     0.4013050000    -0.0950540000 
 H        4.5687650000    -0.7089420000     0.7848060000 
 H        6.2973950000    -0.2908470000     0.2482180000 
 H        5.3233370000     2.7410820000    -1.3582340000 
 H        5.4626170000     1.4511740000    -2.5374250000 
 H        7.2911620000     1.8391650000    -0.2920630000 
 H        7.6177850000     1.9995230000    -1.8794830000 
*
