! RI PBE def2-SVP def2-SVP/J NBO PAL2
% maxcore 2000
% output
    # printlevel mini
    print[ P_Basis ] 0
    print[ P_SCFInfo ] 1
    print[ P_SCFIterInfo ] 1
    print[ P_OrbEn ] 0
    print[ P_Cartesian ] 0
end
*xyz 0 1
 C        0.7896130000    -0.7240180000     1.0245320000 
 C        2.2579280000    -0.8596850000     0.8054670000 
 C        3.1992330000    -0.2575110000     1.5221200000 
 C        4.6741950000    -0.3858920000     1.3072760000 
 C        5.3060880000     0.9682160000     0.9995600000 
 C        5.3302100000    -1.0410000000     2.5259020000 
 N        6.7474320000    -1.2813970000     2.3004790000 
 H        0.2916790000    -0.3238570000     0.1353340000 
 H        0.5711050000    -0.0604660000     1.8636530000 
 H        0.3285610000    -1.6956630000     1.2296880000 
 H        2.5662820000    -1.5068170000    -0.0156310000 
 H        2.8956210000     0.3962750000     2.3420560000 
 H        4.8344180000    -1.0520760000     0.4484870000 
 H        5.0955040000     1.6798150000     1.8044610000 
 H        4.9059300000     1.3850350000     0.0729560000 
 H        6.3892160000     0.8733570000     0.9113150000 
 H        4.7624170000    -1.9492160000     2.7782540000 
 H        5.2350800000    -0.3622780000     3.3813360000 
 H        6.8741250000    -2.0163410000     1.6147780000 
 H        7.1975630000    -1.5930710000     3.1511790000 
*
