! RI PBE def2-SVP def2-SVP/J NBO PAL2
% maxcore 2000
% output
    # printlevel mini
    print[ P_Basis ] 0
    print[ P_SCFInfo ] 1
    print[ P_SCFIterInfo ] 1
    print[ P_OrbEn ] 0
    print[ P_Cartesian ] 0
end
*xyz 0 1
 C        0.9465520000     1.7642850000    -0.5197650000 
 C        2.1466030000     0.9079250000    -0.7413990000 
 C        3.3805030000     1.2261580000    -0.3724330000 
 C        4.6169380000     0.3872500000    -0.5716910000 
 C        5.0761150000    -0.1549290000     0.7824180000 
 C        5.7199350000     1.2761770000    -1.1620270000 
 N        4.3116760000    -0.7567500000    -1.4251630000 
 H        0.2007670000     1.2447160000     0.0906900000 
 H        0.4550810000     2.0103170000    -1.4667430000 
 H        1.2049210000     2.6993770000    -0.0183000000 
 H        1.9859840000    -0.0524710000    -1.2257470000 
 H        3.5537520000     2.1768390000     0.1317350000 
 H        6.0049860000    -0.7242180000     0.6724860000 
 H        4.3120240000    -0.8105520000     1.2020760000 
 H        5.2648710000     0.6588370000     1.4857160000 
 H        5.9408740000     2.1290050000    -0.5136270000 
 H        5.4184210000     1.6655500000    -2.1381030000 
 H        6.6421610000     0.7018550000    -1.2901800000 
 H        4.0871010000    -0.4390410000    -2.3618830000 
 H        5.1288340000    -1.3510590000    -1.5029620000 
*
