! RI PBE def2-SVP def2-SVP/J NBO PAL2
% maxcore 2000
% output
    # printlevel mini
    print[ P_Basis ] 0
    print[ P_SCFInfo ] 1
    print[ P_SCFIterInfo ] 1
    print[ P_OrbEn ] 0
    print[ P_Cartesian ] 0
end
*xyz 0 1
 C        0.9114290000    -0.0261930000     0.0652250000 
 C        2.4030190000    -0.0495090000     0.0761680000 
 C        3.1349650000    -1.0020370000     0.6662370000 
 C        4.5429550000    -1.0072950000     0.6662400000 
 C        5.7525420000    -1.0385130000     0.6829340000 
 C        7.1158760000    -1.0633770000     0.6951760000 
 N        8.2721360000    -1.0837010000     0.7066210000 
 H        0.5295840000     0.8406380000    -0.4725440000 
 H        0.5100150000     0.0056580000     1.0819950000 
 H        0.5064610000    -0.9228820000    -0.4121800000 
 H        2.9280970000     0.7575880000    -0.4264810000 
 H        2.6501420000    -1.8290570000     1.1812090000 
*
