! RI PBE def2-SVP def2-SVP/J NBO PAL2
% maxcore 2000
% output
    # printlevel mini
    print[ P_Basis ] 0
    print[ P_SCFInfo ] 1
    print[ P_SCFIterInfo ] 1
    print[ P_OrbEn ] 0
    print[ P_Cartesian ] 0
end
*xyz 0 1
 C        0.6820440000     0.6855270000     0.2447160000 
 C        2.1579520000     0.8650720000     0.3492470000 
 C        2.9641070000     1.1817120000    -0.6572250000 
 C        4.4438630000     1.3447840000    -0.5660740000 
 C        4.9488670000     2.7190380000    -1.0085060000 
 C        4.4348230000     3.8322180000    -0.1050100000 
 N        6.4031530000     2.6616250000    -1.1111150000 
 H        0.3847100000    -0.3262050000     0.5393560000 
 H        0.3302070000     0.8589720000    -0.7742860000 
 H        0.1504360000     1.3728290000     0.9108850000 
 H        2.5949920000     0.7147120000     1.3361930000 
 H        2.5270180000     1.3312740000    -1.6455740000 
 H        4.9397880000     0.6032920000    -1.2026780000 
 H        4.7747340000     1.1532880000     0.4625370000 
 H        4.5725060000     2.8965610000    -2.0242580000 
 H        4.7951100000     3.6887760000     0.9194000000 
 H        3.3426200000     3.8550900000    -0.0741250000 
 H        4.7867080000     4.8076270000    -0.4518270000 
 H        6.8033830000     2.4795750000    -0.1962260000 
 H        6.7687790000     3.5590120000    -1.4081100000 
*
