! RI PBE def2-SVP def2-SVP/J NBO PAL2
% maxcore 2000
% output
    # printlevel mini
    print[ P_Basis ] 0
    print[ P_SCFInfo ] 1
    print[ P_SCFIterInfo ] 1
    print[ P_OrbEn ] 0
    print[ P_Cartesian ] 0
end
*xyz 0 1
 C        3.5619510000     0.7505350000    -1.2505840000 
 C        2.6766360000     0.0486520000    -0.2664610000 
 C        1.3481580000     0.1278000000    -0.3355190000 
 C        3.3395240000    -0.7558500000     0.7845180000 
 C        2.9209230000    -0.7422530000     2.0500590000 
 C        4.5382340000    -1.5743470000     0.3874200000 
 N        4.2360510000    -2.4344560000    -0.7469430000 
 H        2.9742700000     1.3616500000    -1.9363890000 
 H        4.1262130000     0.0188780000    -1.8352040000 
 H        4.2836090000     1.3984610000    -0.7430840000 
 H        0.8609950000     0.7366460000    -1.0893540000 
 H        0.7127060000    -0.4267110000     0.3450300000 
 H        2.1045530000    -0.1048100000     2.3684950000 
 H        3.3997700000    -1.3565060000     2.8053190000 
 H        4.9014260000    -2.1076550000     1.2773960000 
 H        5.3431130000    -0.8957350000     0.0799510000 
 H        3.4994530000    -3.0869580000    -0.5085900000 
 H        5.0484160000    -2.9755500000    -1.0135690000 
*
