! RI PBE def2-SVP def2-SVP/J NBO PAL2
% maxcore 2000
% output
    # printlevel mini
    print[ P_Basis ] 0
    print[ P_SCFInfo ] 1
    print[ P_SCFIterInfo ] 1
    print[ P_OrbEn ] 0
    print[ P_Cartesian ] 0
end
*xyz 0 1
 C        1.0072050000    -0.5107600000    -0.0862320000 
 C        2.4049340000     0.0204980000    -0.1156500000 
 C        2.9810890000     0.4348840000    -1.2455590000 
 C        3.1343250000     0.0725100000     1.1617780000 
 C        2.6352440000    -0.3216180000     2.3403620000 
 C        4.4753250000     0.5819990000     1.1367540000 
 N        5.5513460000     0.9906680000     1.1104550000 
 H        0.5741240000    -0.4997430000    -1.0858570000 
 H        0.3677330000     0.0882270000     0.5688890000 
 H        0.9806770000    -1.5392410000     0.2857250000 
 H        2.4457680000     0.3980840000    -2.1867510000 
 H        3.9940650000     0.8196000000    -1.2633120000 
 H        1.6303830000    -0.7146070000     2.4209980000 
 H        3.2246030000    -0.2579200000     3.2454190000 
*
