! RI PBE def2-SVP def2-SVP/J NBO PAL2
% maxcore 2000
% output
    # printlevel mini
    print[ P_Basis ] 0
    print[ P_SCFInfo ] 1
    print[ P_SCFIterInfo ] 1
    print[ P_OrbEn ] 0
    print[ P_Cartesian ] 0
end
*xyz 0 1
 C        0.9334050000    -0.0033860000    -0.0077430000 
 C        2.4313690000     0.0499350000     0.0662730000 
 C        3.1044360000     0.7247900000     1.0030890000 
 C        3.1393890000    -0.6693070000    -0.9321600000 
 C        3.7027560000    -1.2946440000    -1.8002330000 
 C        4.3521980000    -1.9960560000    -2.7738940000 
 N        4.9012960000    -2.5907250000    -3.5993830000 
 H        0.4904190000     0.5787270000     0.8003470000 
 H        0.5795970000    -1.0346260000     0.0655000000 
 H        0.5795960000     0.3927120000    -0.9626920000 
 H        2.5760920000     1.2778230000     1.7707940000 
 H        4.1866480000     0.7390590000     1.0228930000 
*
