! RI PBE def2-SVP def2-SVP/J NBO PAL2
% maxcore 2000
% output
    # printlevel mini
    print[ P_Basis ] 0
    print[ P_SCFInfo ] 1
    print[ P_SCFIterInfo ] 1
    print[ P_OrbEn ] 0
    print[ P_Cartesian ] 0
end
*xyz 0 1
 C        1.0146110000     0.0487710000     0.2935570000 
 C        2.4622780000     0.0690140000    -0.0895360000 
 C        3.1430840000     1.1017550000    -0.6229940000 
 C        2.6157160000     2.4069960000    -0.9366640000 
 C        3.3643320000     3.3767200000    -1.4658500000 
 C        3.1725570000    -1.1467540000     0.1458260000 
 N        3.7151440000    -2.1438560000     0.3491990000 
 H        0.5269590000     1.0001090000     0.0918880000 
 H        0.9050120000    -0.1774070000     1.3573720000 
 H        0.4858480000    -0.7342990000    -0.2560650000 
 H        4.1958200000     0.9481250000    -0.8433790000 
 H        1.5682290000     2.6034290000    -0.7324740000 
 H        4.4156470000     3.2217010000    -1.6853150000 
 H        2.9504450000     4.3508850000    -1.6946850000 
*
