! RI PBE def2-SVP def2-SVP/J NBO PAL2
% maxcore 2000
% output
    # printlevel mini
    print[ P_Basis ] 0
    print[ P_SCFInfo ] 1
    print[ P_SCFIterInfo ] 1
    print[ P_OrbEn ] 0
    print[ P_Cartesian ] 0
end
*xyz 0 1
 C        0.9820770000    -0.0944160000    -0.0720320000 
 C        2.4643700000     0.0370830000     0.0519950000 
 C        3.1007360000     0.8998660000     0.8659880000 
 C        2.4465290000     1.8091560000     1.7239020000 
 C        1.9269100000     2.5989060000     2.4689540000 
 C        3.2542810000    -0.8273710000    -0.7636080000 
 N        3.8603630000    -1.5405250000    -1.4364610000 
 H        0.4798720000     0.6084760000     0.5911500000 
 H        0.6664300000    -1.1106200000     0.1780620000 
 H        0.6663950000     0.0961960000    -1.1010420000 
 H        4.1861990000     0.9120470000     0.8774520000 
 H        1.4647280000     3.2969130000     3.1269290000 
*
