! RI PBE def2-SVP def2-SVP/J NBO PAL2
% maxcore 2000
% output
    # printlevel mini
    print[ P_Basis ] 0
    print[ P_SCFInfo ] 1
    print[ P_SCFIterInfo ] 1
    print[ P_OrbEn ] 0
    print[ P_Cartesian ] 0
end
*xyz 0 1
 C        1.0119290000    -0.1616280000     0.2180100000 
 C        2.4823460000    -0.0433940000    -0.0498440000 
 C        2.8923150000     0.7270130000    -1.2187270000 
 C        2.0652890000     1.2964650000    -2.0964760000 
 C        3.3607510000    -0.6396040000     0.7722490000 
 C        4.8499270000    -0.6634810000     0.6913210000 
 N        5.4160680000    -0.2783830000     1.9795820000 
 H        0.4979300000    -0.6574460000    -0.6112690000 
 H        0.5511590000     0.8237410000     0.3357620000 
 H        0.8264140000    -0.7374840000     1.1247930000 
 H        3.9592880000     0.8435850000    -1.3785880000 
 H        0.9874820000     1.2205320000    -2.0116360000 
 H        2.4491120000     1.8596040000    -2.9386240000 
 H        2.9682140000    -1.1791990000     1.6316640000 
 H        5.2154490000    -0.0647190000    -0.1520970000 
 H        5.1660670000    -1.6960220000     0.4953200000 
 H        5.2001010000     0.6907490000     2.1790680000 
 H        6.4243590000    -0.3663300000     1.9671910000 
*
