! RI PBE def2-SVP def2-SVP/J NBO PAL2
% maxcore 2000
% output
    # printlevel mini
    print[ P_Basis ] 0
    print[ P_SCFInfo ] 1
    print[ P_SCFIterInfo ] 1
    print[ P_OrbEn ] 0
    print[ P_Cartesian ] 0
end
*xyz 0 1
 C        0.9178800000    -0.1187350000    -0.1230040000 
 C        2.4076430000    -0.1697200000    -0.0358110000 
 C        3.0329510000    -0.8326380000     1.0979700000 
 C        2.3687780000    -1.4156720000     2.0951290000 
 C        3.1564120000     0.3964270000    -1.0040890000 
 C        4.5740450000     0.3970270000    -1.0051200000 
 N        5.7273850000     0.4102660000    -1.0277670000 
 H        0.4962790000     0.3909630000     0.7478210000 
 H        0.4962750000    -1.1276120000    -0.1400830000 
 H        0.5911710000     0.4059220000    -1.0203180000 
 H        4.1192950000    -0.8386220000     1.1081990000 
 H        1.2856710000    -1.4390720000     2.1351550000 
 H        2.8976570000    -1.8927070000     2.9109960000 
 H        2.6856400000     0.8895020000    -1.8473880000 
*
