! RI PBE def2-SVP def2-SVP/J NBO PAL2
% maxcore 2000
% output
    # printlevel mini
    print[ P_Basis ] 0
    print[ P_SCFInfo ] 1
    print[ P_SCFIterInfo ] 1
    print[ P_OrbEn ] 0
    print[ P_Cartesian ] 0
end
*xyz 0 1
 C        3.4312990000    -1.2806550000     2.1880890000 
 C        2.8910390000    -0.9662880000     0.7992410000 
 C        1.3701330000    -1.0363640000     0.7902350000 
 C        3.3653090000     0.3915170000     0.2846560000 
 C        4.8684920000     0.5230680000     0.0982030000 
 C        5.2690120000     1.8420620000    -0.5361930000 
 N        6.7166420000     1.9455590000    -0.6440470000 
 H        3.0715810000    -2.2522350000     2.5369190000 
 H        3.1000330000    -0.5267450000     2.9101450000 
 H        4.5224930000    -1.3054930000     2.2089470000 
 H        3.2684790000    -1.7324790000     0.1079620000 
 H        0.9441400000    -0.2851080000     1.4632750000 
 H        1.0146340000    -2.0156520000     1.1211510000 
 H        0.9674490000    -0.8522820000    -0.2093800000 
 H        3.0142080000     1.1714270000     0.9739940000 
 H        2.8696420000     0.5912340000    -0.6736200000 
 H        5.2289180000    -0.3009250000    -0.5326380000 
 H        5.3923980000     0.4323810000     1.0537860000 
 H        4.9204200000     2.6642260000     0.0983960000 
 H        4.7443180000     1.9485570000    -1.5001590000 
 H        7.0736480000     1.2273630000    -1.2633500000 
 H        6.9841150000     2.8359320000    -1.0443100000 
*
