! RI PBE def2-SVP def2-SVP/J NBO PAL2
% maxcore 2000
% output
    # printlevel mini
    print[ P_Basis ] 0
    print[ P_SCFInfo ] 1
    print[ P_SCFIterInfo ] 1
    print[ P_OrbEn ] 0
    print[ P_Cartesian ] 0
end
*xyz 0 1
 C        0.7390620000     0.1932040000    -0.0163700000 
 C        2.1825460000    -0.1623790000    -0.2027010000 
 C        2.4247530000    -1.2654400000    -1.1850670000 
 C        3.1370880000     0.4839560000     0.4690000000 
 C        4.6143380000     0.2752180000     0.4232390000 
 C        5.1776490000    -0.1792470000     1.7642450000 
 N        6.6305110000    -0.2403050000     1.7143730000 
 H        0.2875710000     0.5072490000    -0.9640840000 
 H        0.6108650000     1.0000020000     0.7066950000 
 H        0.1635320000    -0.6726500000     0.3294240000 
 H        1.8836930000    -2.1694370000    -0.8851350000 
 H        3.4770130000    -1.5233540000    -1.2941440000 
 H        2.0403590000    -0.9894470000    -2.1731210000 
 H        2.8115380000     1.2663330000     1.1544670000 
 H        5.1147440000     1.2133720000     0.1559690000 
 H        4.8903690000    -0.4516910000    -0.3461980000 
 H        4.6977150000    -1.1302840000     2.0439110000 
 H        4.8972110000     0.5487220000     2.5327830000 
 H        6.9296090000    -0.9447040000     1.0501700000 
 H        7.0084230000    -0.5089190000     2.6141430000 
*
