! RI PBE def2-SVP def2-SVP/J NBO PAL2
% maxcore 2000
% output
    # printlevel mini
    print[ P_Basis ] 0
    print[ P_SCFInfo ] 1
    print[ P_SCFIterInfo ] 1
    print[ P_OrbEn ] 0
    print[ P_Cartesian ] 0
end
*xyz 0 1
 C        0.8995770000     0.1583990000     0.7637320000 
 C        2.1763180000     0.5057730000     0.0564970000 
 C        2.4443960000     1.9830860000     0.0699870000 
 C        2.9759730000    -0.4036600000    -0.5188420000 
 C        2.7392340000    -1.8854000000    -0.4848410000 
 C        4.2289360000    -0.0382840000    -1.2699000000 
 N        5.4131850000    -0.4170320000    -0.5022780000 
 H        0.0775160000     0.7665510000     0.3703750000 
 H        0.9704030000     0.3936150000     1.8319000000 
 H        0.6137520000    -0.8863490000     0.6642910000 
 H        1.6909150000     2.5203300000    -0.5173490000 
 H        3.4260230000     2.2606120000    -0.3091010000 
 H        2.3632650000     2.3658300000     1.0932870000 
 H        2.3386280000    -2.2385480000    -1.4426080000 
 H        2.0575690000    -2.2041510000     0.3016800000 
 H        3.6942590000    -2.3934080000    -0.3287600000 
 H        4.2156170000     1.0152300000    -1.5708910000 
 H        4.2478100000    -0.6216390000    -2.1984240000 
 H        5.4737320000     0.1432880000     0.3392130000 
 H        6.2564220000    -0.2520330000    -1.0377680000 
*
