! RI PBE def2-SVP def2-SVP/J NBO PAL2
% maxcore 2000
% output
    # printlevel mini
    print[ P_Basis ] 0
    print[ P_SCFInfo ] 1
    print[ P_SCFIterInfo ] 1
    print[ P_OrbEn ] 0
    print[ P_Cartesian ] 0
end
*xyz 0 1
 C        0.9595790000    -0.0468760000     0.0675780000 
 C        2.4864410000    -0.0736890000     0.0070910000 
 C        3.0105920000    -0.8338800000     1.2244890000 
 C        2.9348840000    -0.8020080000    -1.2590170000 
 C        3.0682110000     1.3470610000     0.0553700000 
 C        2.7198780000     2.2768730000    -1.0937570000 
 N        3.3743110000     3.5642860000    -0.8987450000 
 H        0.5595290000    -1.0641300000     0.1069760000 
 H        0.5238940000     0.4432760000    -0.8060520000 
 H        0.6114100000     0.4822050000     0.9597820000 
 H        2.6235750000    -1.8567440000     1.2439990000 
 H        2.7080990000    -0.3433240000     2.1542800000 
 H        4.1029400000    -0.8876880000     1.2143090000 
 H        2.5957860000    -1.8416600000    -1.2436920000 
 H        4.0255040000    -0.8072680000    -1.3445220000 
 H        2.5289510000    -0.3385880000    -2.1614530000 
 H        4.1606220000     1.2835790000     0.1127290000 
 H        2.7419520000     1.8172290000     0.9932590000 
 H        1.6266200000     2.3555680000    -1.1933900000 
 H        3.0927320000     1.8582820000    -2.0331750000 
 H        3.0326680000     4.0051180000    -0.0526080000 
 H        3.1605320000     4.1933760000    -1.6624410000 
*
