! RI PBE def2-SVP def2-SVP/J NBO PAL2
% maxcore 2000
% output
    # printlevel mini
    print[ P_Basis ] 0
    print[ P_SCFInfo ] 1
    print[ P_SCFIterInfo ] 1
    print[ P_OrbEn ] 0
    print[ P_Cartesian ] 0
end
*xyz 0 1
 C        0.7828580000     0.0800500000    -0.1511230000 
 C        2.2905610000    -0.0636720000     0.0335370000 
 C        2.7014000000     0.4827690000     1.3971970000 
 C        2.6909590000    -1.5308620000    -0.0847810000 
 C        2.9720020000     0.7550360000    -1.0836510000 
 C        4.4248690000     0.7133090000    -1.0367460000 
 N        5.5730710000     0.6713220000    -0.9878210000 
 H        0.2493570000    -0.4832720000     0.6180710000 
 H        0.4633290000    -0.3002590000    -1.1255110000 
 H        0.4707230000     1.1255740000    -0.0761640000 
 H        2.2111380000    -0.0809710000     2.1945740000 
 H        2.4158020000     1.5329690000     1.5054530000 
 H        3.7811430000     0.4077460000     1.5467900000 
 H        2.2005300000    -2.1212910000     0.6929350000 
 H        3.7704230000    -1.6586530000     0.0260140000 
 H        2.3978050000    -1.9444970000    -1.0538910000 
 H        2.6614100000     1.8029850000    -1.0207210000 
 H        2.6543200000     0.3853060000    -2.0639610000 
*
