! RI PBE def2-SVP def2-SVP/J NBO PAL2
% maxcore 2000
% output
    # printlevel mini
    print[ P_Basis ] 0
    print[ P_SCFInfo ] 1
    print[ P_SCFIterInfo ] 1
    print[ P_OrbEn ] 0
    print[ P_Cartesian ] 0
end
*xyz 0 1
 C        0.9345210000     0.0748340000     0.0562550000 
 C        2.4731810000     0.1009330000     0.0700830000 
 C        2.9990660000     1.3064400000    -0.7289580000 
 C        2.9619850000     0.1613590000     1.4498120000 
 C        3.3455480000     0.2404810000     2.5827310000 
 C        2.9705870000    -1.1333050000    -0.5581560000 
 N        3.3398840000    -2.0870260000    -1.0824970000 
 H        0.5590020000     0.9888580000     0.5178300000 
 H        0.5562390000    -0.7818570000     0.6132060000 
 H        0.5735070000     0.0174740000    -0.9717030000 
 H        2.6312640000     2.2250450000    -0.2702840000 
 H        2.6437150000     1.2524660000    -1.7590730000 
 H        4.0884930000     1.3253230000    -0.7302150000 
 H        3.6911080000     0.3020750000     3.5878700000 
*
