! RI PBE def2-SVP def2-SVP/J NBO PAL2
% maxcore 2000
% output
    # printlevel mini
    print[ P_Basis ] 0
    print[ P_SCFInfo ] 1
    print[ P_SCFIterInfo ] 1
    print[ P_OrbEn ] 0
    print[ P_Cartesian ] 0
end
*xyz 0 1
 C        0.8397390000     0.1919200000    -0.0530570000 
 C        2.3622870000     0.1490840000     0.0522060000 
 C        2.9009950000     1.4617620000     0.6166570000 
 C        2.8031190000    -1.0088150000     0.8920650000 
 C        3.5735760000    -2.0106260000     0.4859090000 
 C        4.0075850000    -3.1508400000     1.3456570000 
 N        3.6276100000    -4.4186410000     0.7350870000 
 H        0.5140450000     1.0332820000    -0.6707150000 
 H        0.3863570000     0.3111900000     0.9360320000 
 H        0.4472040000    -0.7275430000    -0.4925580000 
 H        2.7749050000     0.0110500000    -0.9540540000 
 H        2.5262710000     1.6299610000     1.6311560000 
 H        2.5864080000     2.3093570000     0.0018640000 
 H        3.9921370000     1.4558230000     0.6600040000 
 H        2.4531490000    -1.0024210000     1.9264950000 
 H        3.9198010000    -2.0429930000    -0.5461620000 
 H        3.6166470000    -3.0021240000     2.3641530000 
 H        5.1015990000    -3.1441280000     1.4235990000 
 H        2.6186680000    -4.4990890000     0.7006790000 
 H        3.9750970000    -5.1981200000     1.2792630000 
*
