! RI PBE def2-SVP def2-SVP/J NBO PAL2
% maxcore 2000
% output
    # printlevel mini
    print[ P_Basis ] 0
    print[ P_SCFInfo ] 1
    print[ P_SCFIterInfo ] 1
    print[ P_OrbEn ] 0
    print[ P_Cartesian ] 0
end
*xyz 0 1
 C        0.9022130000     0.2082620000    -0.0854540000 
 C        2.4125020000    -0.0303040000    -0.0765260000 
 C        2.9003750000    -0.3502820000     1.3347180000 
 C        2.8263060000    -1.0801990000    -1.0826410000 
 C        3.4662630000    -0.7509480000    -2.1999340000 
 C        2.4739400000    -2.5069760000    -0.7602480000 
 N        2.6638770000    -3.4088870000    -1.8803910000 
 H        0.6417860000     1.0289740000     0.5884160000 
 H        0.3516900000    -0.6749420000     0.2495260000 
 H        0.5510030000     0.4661430000    -1.0868010000 
 H        2.8920140000     0.9032720000    -0.3903330000 
 H        2.4170080000    -1.2465120000     1.7335780000 
 H        2.6679360000     0.4736580000     2.0141230000 
 H        3.9808630000    -0.5109400000     1.3552240000 
 H        3.7191790000     0.2826510000    -2.4117900000 
 H        3.7681310000    -1.5033420000    -2.9181220000 
 H        1.4514350000    -2.5261940000    -0.3489340000 
 H        3.1236360000    -2.8461640000     0.0557540000 
 H        2.0233580000    -3.1762470000    -2.6299200000 
 H        2.4707840000    -4.3620320000    -1.6026350000 
*
