! RI PBE def2-SVP def2-SVP/J NBO PAL2
% maxcore 2000
% output
    # printlevel mini
    print[ P_Basis ] 0
    print[ P_SCFInfo ] 1
    print[ P_SCFIterInfo ] 1
    print[ P_OrbEn ] 0
    print[ P_Cartesian ] 0
end
*xyz 0 1
 C        1.0276910000     0.0936840000     0.1620650000 
 C        2.5455520000     0.0698040000     0.0074800000 
 C        3.2394220000     0.0949320000     1.3662110000 
 C        2.9884230000    -1.1231780000    -0.8052410000 
 C        3.6231290000    -1.0461600000    -1.9742220000 
 C        2.6911510000    -2.4130900000    -0.2556930000 
 N        2.4365330000    -3.4332550000     0.2155900000 
 H        0.7196990000     0.9791130000     0.7226530000 
 H        0.6776490000    -0.7867240000     0.7075620000 
 H        0.5279270000     0.1116240000    -0.8086010000 
 H        2.8540330000     0.9540430000    -0.5600530000 
 H        2.9714520000    -0.7850980000     1.9569210000 
 H        2.9354450000     0.9807320000     1.9283870000 
 H        4.3259380000     0.1131370000     1.2592520000 
 H        3.8579810000    -0.0810670000    -2.4085160000 
 H        3.9204760000    -1.9324970000    -2.5202940000 
*
