! RI PBE def2-SVP def2-SVP/J NBO PAL2
% maxcore 2000
% output
    # printlevel mini
    print[ P_Basis ] 0
    print[ P_SCFInfo ] 1
    print[ P_SCFIterInfo ] 1
    print[ P_OrbEn ] 0
    print[ P_Cartesian ] 0
end
*xyz 0 1
 C        3.0487550000     0.8831760000    -1.5772580000 
 C        2.7143540000     0.0866150000    -0.3210010000 
 C        1.2342750000     0.2176150000     0.0141660000 
 C        3.1621960000    -1.3838900000    -0.3834150000 
 C        2.4783570000    -2.2026150000    -1.4699600000 
 C        4.6812910000    -1.5024430000    -0.4890040000 
 N        5.1201840000    -2.8623260000    -0.2112060000 
 H        2.7626420000     1.9306710000    -1.4515420000 
 H        2.5088170000     0.5017140000    -2.4480220000 
 H        4.1163210000     0.8605960000    -1.8074400000 
 H        3.2751660000     0.5381890000     0.5087600000 
 H        0.6039370000    -0.1436460000    -0.8028450000 
 H        0.9679590000     1.2627270000     0.1925200000 
 H        0.9763330000    -0.3512420000     0.9119000000 
 H        2.8844750000    -1.8248100000     0.5859360000 
 H        2.6687370000    -1.7843050000    -2.4624580000 
 H        1.3970530000    -2.2492450000    -1.3262000000 
 H        2.8688230000    -3.2212160000    -1.4616570000 
 H        5.1425090000    -0.7507160000     0.1726520000 
 H        4.9959890000    -1.2571150000    -1.5088480000 
 H        4.9756710000    -3.0860550000     0.7662220000 
 H        6.1095570000    -2.9666660000    -0.3947980000 
*
