! RI PBE def2-SVP def2-SVP/J NBO PAL2
% maxcore 2000
% output
    # printlevel mini
    print[ P_Basis ] 0
    print[ P_SCFInfo ] 1
    print[ P_SCFIterInfo ] 1
    print[ P_OrbEn ] 0
    print[ P_Cartesian ] 0
end
*xyz 0 1
 C        3.4903830000     1.0955050000    -0.5147910000 
 C        2.9714610000     0.0836850000     0.5013440000 
 C        1.5233330000     0.4095890000     0.8481520000 
 C        3.1926940000    -1.3879290000     0.0678500000 
 C        2.8558560000    -2.3286840000     1.2200410000 
 C        2.3498710000    -1.7647270000    -1.1531400000 
 N        4.6271240000    -1.5553750000    -0.1884470000 
 H        3.3460480000     2.1109720000    -0.1372510000 
 H        2.9543560000     1.0294090000    -1.4663390000 
 H        4.5582310000     0.9764660000    -0.7074860000 
 H        3.5749070000     0.1995740000     1.4095930000 
 H        0.8782950000     0.3615590000    -0.0337440000 
 H        1.4536520000     1.4265180000     1.2423220000 
 H        1.1112220000    -0.2605990000     1.6046070000 
 H        1.7928580000    -2.3138920000     1.4624240000 
 H        3.1127880000    -3.3585930000     0.9531060000 
 H        3.4257100000    -2.0597630000     2.1122400000 
 H        1.2771790000    -1.6852860000    -0.9595130000 
 H        2.5569520000    -2.7997600000    -1.4395400000 
 H        2.5855750000    -1.1314020000    -2.0122880000 
 H        4.8334160000    -2.5385120000    -0.3258290000 
 H        4.8913170000    -1.0866660000    -1.0468320000 
*
