! RI PBE def2-SVP def2-SVP/J NBO PAL2
% maxcore 2000
% output
    # printlevel mini
    print[ P_Basis ] 0
    print[ P_SCFInfo ] 1
    print[ P_SCFIterInfo ] 1
    print[ P_OrbEn ] 0
    print[ P_Cartesian ] 0
end
*xyz 0 1
 C        0.8494710000     0.0914370000     0.1506760000 
 C        2.3679450000     0.0258660000    -0.0161930000 
 C        3.0254000000     1.3606090000     0.3343110000 
 C        2.9301830000    -1.0650050000     0.7739770000 
 C        3.3811600000    -1.9674250000     1.4297190000 
 C        3.9342110000    -3.0401660000     2.2444510000 
 N        2.9091880000    -3.6607490000     3.0779910000 
 H        0.4334170000     0.8788120000    -0.4826920000 
 H        0.5885680000     0.3124570000     1.1882720000 
 H        0.3823200000    -0.8563350000    -0.1206700000 
 H        2.5816860000    -0.1906250000    -1.0707210000 
 H        2.8288120000     1.6210770000     1.3770090000 
 H        2.6270480000     2.1573230000    -0.2988520000 
 H        4.1067400000     1.3165060000     0.1948240000 
 H        4.7846600000    -2.6320320000     2.8136020000 
 H        4.3467460000    -3.8103950000     1.5834990000 
 H        2.4714850000    -2.9583130000     3.6614230000 
 H        3.3353600000    -4.3419420000     3.6945740000 
*
