! RI PBE def2-SVP def2-SVP/J NBO PAL2
% maxcore 2000
% output
    # printlevel mini
    print[ P_Basis ] 0
    print[ P_SCFInfo ] 1
    print[ P_SCFIterInfo ] 1
    print[ P_OrbEn ] 0
    print[ P_Cartesian ] 0
end
*xyz 0 1
 C        0.9011710000    -0.0249380000    -0.0574500000 
 C        2.4307330000     0.0243910000    -0.0700790000 
 C        2.9713900000     0.6053620000    -1.3786300000 
 C        2.9313750000     0.7713840000     1.0707380000 
 C        3.3391450000     1.4057450000     2.0124850000 
 C        3.8029190000     2.1210040000     3.0807080000 
 N        4.1947850000     2.7269680000     3.9832430000 
 H        0.5464290000    -0.6312640000    -0.8933400000 
 H        0.4842460000     0.9789760000    -0.1593900000 
 H        0.5253680000    -0.4592750000     0.8697460000 
 H        2.8093050000    -1.0005740000     0.0341380000 
 H        2.6161010000     1.6280430000    -1.5198890000 
 H        2.6244820000     0.0014280000    -2.2195230000 
 H        4.0619620000     0.6174600000    -1.3872580000 
*
