! RI PBE def2-SVP def2-SVP/J NBO PAL2
% maxcore 2000
% output
    # printlevel mini
    print[ P_Basis ] 0
    print[ P_SCFInfo ] 1
    print[ P_SCFIterInfo ] 1
    print[ P_OrbEn ] 0
    print[ P_Cartesian ] 0
end
*xyz 0 1
 C        1.0825080000     0.3042860000    -0.4330780000 
 C        2.5366680000     0.0596920000    -0.0363180000 
 C        2.6999800000    -0.2691720000     1.4604820000 
 C        2.3365060000     0.8823080000     2.3375050000 
 C        1.3977560000     0.8595940000     3.2724720000 
 C        3.1146790000    -1.0100670000    -0.8439770000 
 N        3.5616090000    -1.8639600000    -1.4715250000 
 H        0.6699270000     1.1164840000     0.1667650000 
 H        0.4818910000    -0.5907340000    -0.2585370000 
 H        1.0023650000     0.5692440000    -1.4879000000 
 H        3.1209670000     0.9621440000    -0.2537890000 
 H        3.7441430000    -0.5477060000     1.6386590000 
 H        2.0890520000    -1.1424680000     1.7058730000 
 H        2.9084920000     1.7969050000     2.1850040000 
 H        0.8058530000    -0.0310580000     3.4598500000 
 H        1.1922940000     1.7257070000     3.8906150000 
*
