! RI PBE def2-SVP def2-SVP/J NBO PAL2
% maxcore 2000
% output
    # printlevel mini
    print[ P_Basis ] 0
    print[ P_SCFInfo ] 1
    print[ P_SCFIterInfo ] 1
    print[ P_OrbEn ] 0
    print[ P_Cartesian ] 0
end
*xyz 0 1
 C        0.8897770000    -0.0754140000    -0.0138060000 
 C        2.3406430000    -0.0309330000    -0.0238620000 
 C        3.5432070000     0.0005320000    -0.0312070000 
 C        4.9987970000     0.0532460000    -0.0355890000 
 C        5.5765080000     1.1835690000    -0.8890160000 
 C        5.2747550000     1.0354020000    -2.3673870000 
 N        5.8732370000     2.1308060000    -3.1177000000 
 H        0.4701810000     0.5807980000    -0.7807860000 
 H        0.4919030000     0.2442970000     0.9527650000 
 H        0.5262900000    -1.0881300000    -0.2064120000 
 H        5.3922540000    -0.9074440000    -0.3891250000 
 H        5.3516020000     0.1634280000     0.9951630000 
 H        6.6610820000     1.2194160000    -0.7525710000 
 H        5.1783280000     2.1393000000    -0.5299180000 
 H        4.1868450000     0.9435190000    -2.5022450000 
 H        5.7165360000     0.0999710000    -2.7286920000 
 H        5.4404300000     3.0088980000    -2.8554710000 
 H        5.7105140000     2.0128300000    -4.1098320000 
*
