! RI PBE def2-SVP def2-SVP/J NBO PAL2
% maxcore 2000
% output
    # printlevel mini
    print[ P_Basis ] 0
    print[ P_SCFInfo ] 1
    print[ P_SCFIterInfo ] 1
    print[ P_OrbEn ] 0
    print[ P_Cartesian ] 0
end
*xyz 0 1
 C        0.8625330000     0.0976620000    -0.0263660000 
 C        2.3079460000     0.0423210000    -0.0365550000 
 C        3.5129560000    -0.0085890000    -0.0553200000 
 C        4.9207150000    -0.0454630000    -0.0310800000 
 C        5.6761160000    -0.5550500000    -1.0174010000 
 C        7.0915530000    -0.5713390000    -0.9506450000 
 N        8.2440540000    -0.5955720000    -0.9186670000 
 H        0.4362790000    -0.9051450000    -0.1137470000 
 H        0.4924320000     0.6922470000    -0.8657250000 
 H        0.4932450000     0.5462580000     0.8985430000 
 H        5.4104730000     0.3678960000     0.8468480000 
 H        5.2240080000    -0.9760470000    -1.9082750000 
*
