! RI PBE def2-SVP def2-SVP/J NBO PAL2
% maxcore 2000
% output
    # printlevel mini
    print[ P_Basis ] 0
    print[ P_SCFInfo ] 1
    print[ P_SCFIterInfo ] 1
    print[ P_OrbEn ] 0
    print[ P_Cartesian ] 0
end
*xyz 0 1
 C        0.9062480000    -0.0108890000    -0.0831260000 
 C        2.3522330000    -0.0551320000    -0.0531530000 
 C        3.5550250000    -0.0946590000    -0.0264000000 
 C        4.9772230000    -0.1092040000    -0.0165280000 
 C        5.7151960000    -1.0345150000     0.6113180000 
 C        5.6311010000     0.9493200000    -0.7347470000 
 N        6.1523630000     1.7985200000    -1.3109570000 
 H        0.5579110000     0.8606370000    -0.6420720000 
 H        0.4976580000     0.0478910000     0.9288130000 
 H        0.4994650000    -0.9060960000    -0.5602220000 
 H        5.2375740000    -1.8379090000     1.1564210000 
 H        6.7960130000    -0.9938540000     0.5837620000 
*
