! RI PBE def2-SVP def2-SVP/J NBO PAL2
% maxcore 2000
% output
    # printlevel mini
    print[ P_Basis ] 0
    print[ P_SCFInfo ] 1
    print[ P_SCFIterInfo ] 1
    print[ P_OrbEn ] 0
    print[ P_Cartesian ] 0
end
*xyz 0 1
 C        0.8985750000     0.0570270000     0.0145100000 
 C        2.3502520000     0.0585730000     0.0189450000 
 C        3.5534290000     0.0679760000     0.0221610000 
 C        5.0120710000     0.0589790000     0.0410980000 
 C        5.5608730000     0.4765840000     1.4039310000 
 C        5.5410890000    -1.3159390000    -0.3894330000 
 N        6.9851360000    -1.2839760000    -0.5525450000 
 H        0.5029940000    -0.6462840000     0.7517770000 
 H        0.5076220000    -0.2302510000    -0.9649460000 
 H        0.5044670000     1.0480750000     0.2538230000 
 H        5.3596070000     0.7869510000    -0.7058400000 
 H        5.1891940000    -0.1941360000     2.1825270000 
 H        5.2489110000     1.4914730000     1.6554900000 
 H        6.6501800000     0.4265230000     1.3924730000 
 H        4.9968180000    -1.6314010000    -1.2904620000 
 H        5.2988450000    -2.0379070000     0.3962940000 
 H        7.2368940000    -0.7972640000    -1.4043010000 
 H        7.3588650000    -2.2207010000    -0.6261890000 
*
