! RI PBE def2-SVP def2-SVP/J NBO PAL2
% maxcore 2000
% output
    # printlevel mini
    print[ P_Basis ] 0
    print[ P_SCFInfo ] 1
    print[ P_SCFIterInfo ] 1
    print[ P_OrbEn ] 0
    print[ P_Cartesian ] 0
end
*xyz 0 1
 C        1.4113590000     0.8077480000    -0.0154040000 
 C        2.7862670000     0.3541680000     0.0828570000 
 C        3.9235460000    -0.0245890000     0.1773440000 
 C        5.3153510000    -0.4817990000     0.2614610000 
 C        5.9897930000    -0.2767940000    -1.1030160000 
 C        5.3508990000    -1.9636120000     0.6384640000 
 N        5.9759250000     0.2655920000     1.3375030000 
 H        1.2632530000     1.4349390000    -0.8981400000 
 H        1.1302820000     1.3930310000     0.8637480000 
 H        0.7238230000    -0.0389100000    -0.0863380000 
 H        5.9834240000     0.7802340000    -1.3771810000 
 H        5.4777970000    -0.8364140000    -1.8890550000 
 H        7.0280550000    -0.6186860000    -1.0558480000 
 H        4.8508820000    -2.5693000000    -0.1186800000 
 H        4.8613980000    -2.1166470000     1.6000350000 
 H        6.3892260000    -2.2993850000     0.7177060000 
 H        5.9058550000     1.2605680000     1.1579740000 
 H        6.9631760000     0.0316370000     1.3483820000 
*
