! RI PBE def2-SVP def2-SVP/J NBO PAL2
% maxcore 2000
% output
    # printlevel mini
    print[ P_Basis ] 0
    print[ P_SCFInfo ] 1
    print[ P_SCFIterInfo ] 1
    print[ P_OrbEn ] 0
    print[ P_Cartesian ] 0
end
*xyz 0 1
 C        1.1866430000    -0.0189330000    -0.0201890000 
 C        2.6286590000    -0.0189620000    -0.0203930000 
 C        3.8382500000    -0.0188570000    -0.0204960000 
 C        5.1910930000    -0.0189540000    -0.0202750000 
 C        6.4040270000    -0.0189260000    -0.0201540000 
 C        7.7645520000    -0.0188840000    -0.0200930000 
 N        8.9216840000    -0.0188600000    -0.0201080000 
 H        0.8005040000    -0.7720120000     0.6716190000 
 H        0.8002990000    -0.2414460000    -1.0182170000 
 H        0.8005780000     0.9567250000     0.2861960000 
*
