! RI PBE def2-SVP def2-SVP/J NBO PAL2
% maxcore 2000
% output
    # printlevel mini
    print[ P_Basis ] 0
    print[ P_SCFInfo ] 1
    print[ P_SCFIterInfo ] 1
    print[ P_OrbEn ] 0
    print[ P_Cartesian ] 0
end
*xyz 0 1
 C        3.3106180000    -1.9113820000     0.5594510000 
 C        3.8001350000    -0.6550160000    -0.1531510000 
 C        3.1686370000     0.5909070000     0.3743660000 
 C        3.8186640000     1.6116570000     0.9210640000 
 C        3.1873160000     2.8544750000     1.4531160000 
 C        3.6338490000     4.1072940000     0.7108550000 
 N        3.0806270000     5.2969570000     1.3396200000 
 H        3.7622520000    -2.8096630000     0.1318680000 
 H        2.2250630000    -2.0131500000     0.4769070000 
 H        3.5593530000    -1.8785740000     1.6227370000 
 H        3.5777700000    -0.7469720000    -1.2236870000 
 H        4.8883280000    -0.5758690000    -0.0677690000 
 H        2.0804480000     0.6393290000     0.3118190000 
 H        4.9063350000     1.5602630000     0.9862270000 
 H        3.4412650000     2.9875800000     2.5112420000 
 H        2.0961860000     2.7655090000     1.3974600000 
 H        3.3715600000     3.9989230000    -0.3532150000 
 H        4.7257710000     4.1788520000     0.7574730000 
 H        2.0697600000     5.2927700000     1.2691740000 
 H        3.4022640000     6.1329000000     0.8681430000 
*
