! RI PBE def2-SVP def2-SVP/J NBO PAL2
% maxcore 2000
% output
    # printlevel mini
    print[ P_Basis ] 0
    print[ P_SCFInfo ] 1
    print[ P_SCFIterInfo ] 1
    print[ P_OrbEn ] 0
    print[ P_Cartesian ] 0
end
*xyz 0 1
 C        2.0713530000     1.1354260000    -0.1319290000 
 C        3.5433680000     0.8839620000     0.1799540000 
 C        4.0682100000    -0.3303930000    -0.5157390000 
 C        4.6806760000    -1.3990030000    -0.0015080000 
 C        5.1239300000    -2.5343180000    -0.8721810000 
 C        4.9802280000    -1.5725210000     1.4614910000 
 N        4.2336430000    -2.7048810000     2.0049760000 
 H        1.7175660000     2.0537170000     0.3427980000 
 H        1.4489670000     0.3093620000     0.2206600000 
 H        1.9089960000     1.2327930000    -1.2087360000 
 H        3.6818660000     0.8129390000     1.2608440000 
 H        4.1236400000     1.7573280000    -0.1445080000 
 H        3.9116040000    -0.3272520000    -1.5950910000 
 H        6.2155300000    -2.6315900000    -0.8544950000 
 H        4.8109480000    -2.3927450000    -1.9077530000 
 H        4.7190900000    -3.4799230000    -0.5034140000 
 H        4.8124880000    -0.6341470000     2.0033300000 
 H        6.0462190000    -1.8075220000     1.5668490000 
 H        3.2428730000    -2.4945980000     2.0107580000 
 H        4.5082050000    -2.8858400000     2.9621850000 
*
