! RI PBE def2-SVP def2-SVP/J NBO PAL2
% maxcore 2000
% output
    # printlevel mini
    print[ P_Basis ] 0
    print[ P_SCFInfo ] 1
    print[ P_SCFIterInfo ] 1
    print[ P_OrbEn ] 0
    print[ P_Cartesian ] 0
end
*xyz 0 1
 C        2.5239000000     1.2644570000     0.8231040000 
 C        2.1295100000    -0.0286900000     0.1168560000 
 C        2.6194170000    -1.2752550000     0.8020920000 
 C        1.7665620000    -2.2057240000     1.2221640000 
 C        4.0994500000    -1.4378830000     1.0040840000 
 C        4.9099900000    -1.4655140000    -0.2856560000 
 N        6.3115460000    -1.7164620000     0.0142320000 
 H        2.0993660000     2.1296650000     0.3089690000 
 H        3.6077430000     1.3999350000     0.8499950000 
 H        2.1611350000     1.2732610000     1.8538950000 
 H        2.5148520000    -0.0021010000    -0.9095060000 
 H        1.0406730000    -0.0818920000     0.0330620000 
 H        0.6957560000    -2.0951260000     1.0855520000 
 H        2.1100040000    -3.1079030000     1.7170960000 
 H        4.2979970000    -2.3615540000     1.5525890000 
 H        4.4753120000    -0.6170070000     1.6299650000 
 H        4.7420680000    -0.5345180000    -0.8487950000 
 H        4.5455900000    -2.2838970000    -0.9146180000 
 H        6.6973620000    -0.9527410000     0.5571800000 
 H        6.8550560000    -1.7742420000    -0.8376580000 
*
