! RI PBE def2-SVP def2-SVP/J NBO PAL2
% maxcore 2000
% output
    # printlevel mini
    print[ P_Basis ] 0
    print[ P_SCFInfo ] 1
    print[ P_SCFIterInfo ] 1
    print[ P_OrbEn ] 0
    print[ P_Cartesian ] 0
end
*xyz 0 1
 C        2.8935550000     1.4283070000    -0.2079330000 
 C        2.5576130000    -0.0281460000     0.0982520000 
 C        2.8891080000    -0.4472570000     1.4991350000 
 C        1.9761640000    -0.8810870000     2.3593680000 
 C        4.3356640000    -0.3370700000     1.9272960000 
 C        5.2487030000    -1.0402050000     1.0352470000 
 N        5.9613450000    -1.5918630000     0.3215320000 
 H        2.5858180000     1.6842150000    -1.2235320000 
 H        3.9665470000     1.6227390000    -0.1395990000 
 H        2.3805770000     2.1043620000     0.4805370000 
 H        3.1021020000    -0.6732010000    -0.6017490000 
 H        1.4935100000    -0.2066400000    -0.0735700000 
 H        0.9301720000    -0.9427620000     2.0806670000 
 H        2.2373550000    -1.1907520000     3.3653880000 
 H        4.4643540000    -0.7318740000     2.9374660000 
 H        4.6460320000     0.7136540000     1.9516950000 
*
