! RI PBE def2-SVP def2-SVP/J NBO PAL2
% maxcore 2000
% output
    # printlevel mini
    print[ P_Basis ] 0
    print[ P_SCFInfo ] 1
    print[ P_SCFIterInfo ] 1
    print[ P_OrbEn ] 0
    print[ P_Cartesian ] 0
end
*xyz 0 1
 C        2.8571700000     1.4843240000     0.0374060000 
 C        2.4556000000     0.0217240000    -0.0080190000 
 C        3.0233780000    -0.8073180000     1.1583340000 
 C        2.5479620000    -2.2339310000     1.1145140000 
 C        1.7655650000    -2.7808720000     2.0307170000 
 C        4.4857510000    -0.7663400000     1.1488400000 
 N        5.6350410000    -0.7368080000     1.1188710000 
 H        2.4190120000     2.0297630000    -0.8005220000 
 H        3.9418890000     1.6014430000    -0.0175070000 
 H        2.5145550000     1.9606170000     0.9600280000 
 H        2.7799950000    -0.4326870000    -0.9490280000 
 H        1.3676210000    -0.0792400000     0.0326560000 
 H        2.6973040000    -0.3551600000     2.1022150000 
 H        2.8712250000    -2.8119800000     0.2524180000 
 H        1.4371660000    -2.2267030000     2.9045160000 
 H        1.4258160000    -3.8057730000     1.9419000000 
*
