! RI PBE def2-SVP def2-SVP/J NBO PAL2
% maxcore 2000
% output
    # printlevel mini
    print[ P_Basis ] 0
    print[ P_SCFInfo ] 1
    print[ P_SCFIterInfo ] 1
    print[ P_OrbEn ] 0
    print[ P_Cartesian ] 0
end
*xyz 0 1
 C        1.9195620000     2.0116540000    -1.1742070000 
 C        2.1717170000     0.6933670000    -0.4578810000 
 C        2.7280650000    -0.4381940000    -1.3312940000 
 C        1.7094940000    -0.9061190000    -2.3636470000 
 C        4.0527810000    -0.1014830000    -2.0134210000 
 C        5.1823300000     0.2815330000    -1.0756050000 
 N        6.4310080000     0.4102490000    -1.8154370000 
 H        1.4972120000     2.7485700000    -0.4871140000 
 H        1.2158550000     1.8984890000    -2.0022290000 
 H        2.8415170000     2.4364220000    -1.5793060000 
 H        1.2347180000     0.3438200000    -0.0096380000 
 H        2.8532040000     0.8683780000     0.3808450000 
 H        2.9198270000    -1.2833010000    -0.6562040000 
 H        1.4943770000    -0.1247870000    -3.0979590000 
 H        0.7648300000    -1.1877940000    -1.8905000000 
 H        2.0810850000    -1.7746440000    -2.9132880000 
 H        3.8965500000     0.7069670000    -2.7400100000 
 H        4.3822430000    -0.9674170000    -2.5971920000 
 H        5.3140010000    -0.5119290000    -0.3311180000 
 H        4.9114920000     1.1919140000    -0.5190230000 
 H        6.3502870000     1.1453760000    -2.5084700000 
 H        7.1870570000     0.6762300000    -1.1969020000 
*
