! RI PBE def2-SVP def2-SVP/J NBO PAL2
% maxcore 2000
% output
    # printlevel mini
    print[ P_Basis ] 0
    print[ P_SCFInfo ] 1
    print[ P_SCFIterInfo ] 1
    print[ P_OrbEn ] 0
    print[ P_Cartesian ] 0
end
*xyz 0 1
 C        2.0473620000     1.0706220000     0.9588370000 
 C        2.6882200000     0.1553080000    -0.0812940000 
 C        3.0425050000    -1.2012310000     0.4471420000 
 C        1.9276650000    -2.0579890000     0.9428170000 
 C        4.3216770000    -1.6034070000     0.4590370000 
 C        4.7401830000    -2.8723480000     0.9390180000 
 N        5.1000590000    -3.8980930000     1.3245910000 
 H        1.8411610000     2.0506320000     0.5244750000 
 H        2.7098850000     1.2137320000     1.8155010000 
 H        1.1016590000     0.6681940000     1.3266190000 
 H        3.5843000000     0.6307030000    -0.4879110000 
 H        1.9911910000     0.0266520000    -0.9187250000 
 H        1.4619230000    -1.6100060000     1.8255430000 
 H        2.2661240000    -3.0590330000     1.2082570000 
 H        1.1450850000    -2.1394040000     0.1820420000 
 H        5.1090010000    -0.9542230000     0.0904510000 
*
