! RI PBE def2-SVP def2-SVP/J NBO PAL2
% maxcore 2000
% output
    # printlevel mini
    print[ P_Basis ] 0
    print[ P_SCFInfo ] 1
    print[ P_SCFIterInfo ] 1
    print[ P_OrbEn ] 0
    print[ P_Cartesian ] 0
end
*xyz 0 1
 C        2.9395660000     0.8902540000     1.1542110000 
 C        2.5299370000    -0.0132320000     0.0003130000 
 C        3.0319620000     0.3872740000    -1.3971400000 
 C        2.5639810000    -0.6690820000    -2.3942500000 
 C        2.4698340000     1.7460880000    -1.8036200000 
 C        4.5639310000     0.4766050000    -1.4273390000 
 N        5.2100100000    -0.7568160000    -1.0043720000 
 H        2.5400520000     0.5102080000     2.0975180000 
 H        2.5647340000     1.9087260000     1.0302840000 
 H        4.0259700000     0.9531750000     1.2647790000 
 H        1.4357720000    -0.0660310000    -0.0402600000 
 H        2.8643000000    -1.0368030000     0.2024770000 
 H        1.4758850000    -0.7776540000    -2.3637300000 
 H        3.0177880000    -1.6362270000    -2.1709320000 
 H        2.8432780000    -0.3928660000    -3.4154730000 
 H        1.3764020000     1.7353050000    -1.7892640000 
 H        2.7853750000     2.0068560000    -2.8180460000 
 H        2.8072490000     2.5457710000    -1.1394130000 
 H        4.8773140000     1.3552580000    -0.8423280000 
 H        4.8671440000     0.6737260000    -2.4609660000 
 H        5.1735240000    -0.8576690000     0.0021850000 
 H        6.1878950000    -0.7523570000    -1.2620240000 
*
