! RI PBE def2-SVP def2-SVP/J NBO PAL2
% maxcore 2000
% output
    # printlevel mini
    print[ P_Basis ] 0
    print[ P_SCFInfo ] 1
    print[ P_SCFIterInfo ] 1
    print[ P_OrbEn ] 0
    print[ P_Cartesian ] 0
end
*xyz 0 1
 C        3.2279170000     0.6183450000    -1.2050090000 
 C        2.7541250000    -0.2443490000    -0.0463590000 
 C        3.2991930000     0.1560820000     1.3243430000 
 C        2.5624570000    -0.6095400000     2.4178520000 
 C        4.8256180000    -0.0075840000     1.4171860000 
 C        5.4087300000     0.6591100000     2.6596440000 
 N        5.1937690000    -1.4134780000     1.2785720000 
 H        2.7216990000     0.3370460000    -2.1315410000 
 H        4.3006430000     0.5149790000    -1.3829550000 
 H        3.0199670000     1.6777160000    -1.0245540000 
 H        3.0220730000    -1.2893270000    -0.2306090000 
 H        1.6600740000    -0.2043460000     0.0004380000 
 H        3.0959050000     1.2264880000     1.4662000000 
 H        2.6767570000    -1.6893150000     2.2848590000 
 H        1.4919860000    -0.3940790000     2.3786490000 
 H        2.9104720000    -0.3484470000     3.4197930000 
 H        5.2518080000     0.5040920000     0.5475850000 
 H        5.0672220000     0.1686170000     3.5754940000 
 H        5.1287460000     1.7150930000     2.7192740000 
 H        6.5005580000     0.6027600000     2.6453400000 
 H        4.9610740000    -1.9225620000     2.1238390000 
 H        6.1951080000    -1.5023890000     1.1579520000 
*
