! RI PBE def2-SVP def2-SVP/J NBO PAL2
% maxcore 2000
% output
    # printlevel mini
    print[ P_Basis ] 0
    print[ P_SCFInfo ] 1
    print[ P_SCFIterInfo ] 1
    print[ P_OrbEn ] 0
    print[ P_Cartesian ] 0
end
*xyz 0 1
 C        3.2729560000    -0.6667510000     0.9317280000 
 C        2.7202230000     0.5059690000     0.1386970000 
 C        3.1729640000     0.5679540000    -1.3175930000 
 C        2.4775560000     1.6961650000    -2.0637950000 
 C        4.7006310000     0.6825520000    -1.4551880000 
 C        5.2391810000     1.8769400000    -0.8210650000 
 N        5.6481620000     2.8231480000    -0.3111860000 
 H        2.8331380000    -0.7003540000     1.9305520000 
 H        4.3558050000    -0.6018120000     1.0636440000 
 H        3.0507790000    -1.6194740000     0.4416700000 
 H        2.9868610000     1.4472630000     0.6330370000 
 H        1.6262180000     0.4613010000     0.1437010000 
 H        2.9076630000    -0.3828340000    -1.7967760000 
 H        2.7383690000     2.6673090000    -1.6338580000 
 H        1.3925500000     1.5857790000    -2.0064730000 
 H        2.7581140000     1.7112720000    -3.1201780000 
 H        4.9798750000     0.7064240000    -2.5127250000 
 H        5.1977640000    -0.1861520000    -1.0155910000 
*
