! RI PBE def2-SVP def2-SVP/J NBO PAL2
% maxcore 2000
% output
    # printlevel mini
    print[ P_Basis ] 0
    print[ P_SCFInfo ] 1
    print[ P_SCFIterInfo ] 1
    print[ P_OrbEn ] 0
    print[ P_Cartesian ] 0
end
*xyz 0 1
 C        0.9624820000    -0.0559600000     0.0462270000 
 C        2.4760890000     0.0354350000     0.0431290000 
 C        3.0122360000     1.1334530000     0.9855640000 
 C        4.4698260000     1.1333690000     1.0542110000 
 C        5.6666930000     1.1023100000     1.1024800000 
 C        2.5117550000     2.4531760000     0.5902100000 
 N        2.0906670000     3.4726300000     0.2683990000 
 H        0.6280910000    -0.8490900000    -0.6246680000 
 H        0.5053840000     0.8785040000    -0.2866660000 
 H        0.5793850000    -0.2818970000     1.0450380000 
 H        2.8527530000     0.2344080000    -0.9628660000 
 H        2.9230140000    -0.9062690000     0.3703380000 
 H        2.6195510000     0.9421810000     1.9931810000 
 H        6.7302720000     1.0833510000     1.1466230000 
*
