! RI PBE def2-SVP def2-SVP/J NBO PAL2
% maxcore 2000
% output
    # printlevel mini
    print[ P_Basis ] 0
    print[ P_SCFInfo ] 1
    print[ P_SCFIterInfo ] 1
    print[ P_OrbEn ] 0
    print[ P_Cartesian ] 0
end
*xyz 0 1
 C        2.9625740000    -1.2989380000    -0.5859500000 
 C        2.5429730000     0.0186850000     0.0396870000 
 C        3.0690880000     1.2541920000    -0.7005050000 
 C        2.5467500000     2.5636860000    -0.0975480000 
 C        2.9702080000     3.8051410000    -0.8611430000 
 C        4.5298970000     1.2506240000    -0.7265390000 
 N        5.6802820000     1.2490100000    -0.7252500000 
 H        2.5524520000    -2.1419000000    -0.0264560000 
 H        4.0498690000    -1.4037720000    -0.5992900000 
 H        2.6061340000    -1.3792490000    -1.6165800000 
 H        2.8785820000     0.0668910000     1.0803040000 
 H        1.4514070000     0.0955110000     0.0590370000 
 H        2.7418900000     1.1982370000    -1.7471680000 
 H        2.8823450000     2.6266460000     0.9422850000 
 H        1.4549610000     2.4926400000    -0.0702620000 
 H        4.0578090000     3.9046890000    -0.8854660000 
 H        2.5626710000     4.7045920000    -0.3956110000 
 H        2.6138790000     3.7752350000    -1.8945050000 
*
