! RI PBE def2-SVP def2-SVP/J NBO PAL2
% maxcore 2000
% output
    # printlevel mini
    print[ P_Basis ] 0
    print[ P_SCFInfo ] 1
    print[ P_SCFIterInfo ] 1
    print[ P_OrbEn ] 0
    print[ P_Cartesian ] 0
end
*xyz 0 1
 C        0.9889090000    -0.2626820000     0.0864920000 
 C        2.4799310000     0.0517920000     0.1797350000 
 C        2.9449100000     0.9396380000    -0.8757180000 
 C        3.3090530000     1.6677090000    -1.7620580000 
 C        3.7533380000     2.5679310000    -2.8136570000 
 C        3.8928880000     4.0129320000    -2.3417840000 
 N        4.3204950000     4.8534820000    -3.4475460000 
 H        0.6874030000    -0.9320530000     0.8952210000 
 H        0.7528570000    -0.7439910000    -0.8641240000 
 H        0.3949250000     0.6502360000     0.1563750000 
 H        3.0566820000    -0.8789040000     0.1429820000 
 H        2.7014410000     0.5056420000     1.1518510000 
 H        3.0548900000     2.5423930000    -3.6560820000 
 H        4.7183430000     2.2218020000    -3.2042020000 
 H        4.5622130000     4.0362010000    -1.4692840000 
 H        2.9161680000     4.3651960000    -2.0000310000 
 H        5.2733670000     4.6341580000    -3.7129310000 
 H        4.3076870000     5.8293070000    -3.1805580000 
*
