! RI PBE def2-SVP def2-SVP/J NBO PAL2
% maxcore 2000
% output
    # printlevel mini
    print[ P_Basis ] 0
    print[ P_SCFInfo ] 1
    print[ P_SCFIterInfo ] 1
    print[ P_OrbEn ] 0
    print[ P_Cartesian ] 0
end
*xyz 0 1
 C        0.9121350000     0.0493880000     0.1453790000 
 C        2.4351480000     0.1010820000     0.0517640000 
 C        2.9566060000    -0.5652590000    -1.1324150000 
 C        3.3760300000    -1.1212850000    -2.1140980000 
 C        3.8390300000    -1.7874090000    -3.3204350000 
 C        2.7340220000    -1.9467570000    -4.3763050000 
 N        3.1368410000    -2.6061080000    -5.6005820000 
 H        0.5664190000     0.5614540000     1.0460030000 
 H        0.5606100000    -0.9832270000     0.1807330000 
 H        0.4538400000     0.5299920000    -0.7206770000 
 H        2.8756530000    -0.3582420000     0.9434040000 
 H        2.7699290000     1.1441430000     0.0518980000 
 H        4.6719290000    -1.2231250000    -3.7569660000 
 H        4.2367490000    -2.7774750000    -3.0670940000 
 H        2.3391690000    -0.9582400000    -4.6258560000 
 H        1.9034600000    -2.5054820000    -3.9364780000 
 H        3.8856090000    -2.0994340000    -6.0568290000 
 H        3.4794190000    -3.5406160000    -5.4139460000 
*
