! RI PBE def2-SVP def2-SVP/J NBO PAL2
% maxcore 2000
% output
    # printlevel mini
    print[ P_Basis ] 0
    print[ P_SCFInfo ] 1
    print[ P_SCFIterInfo ] 1
    print[ P_OrbEn ] 0
    print[ P_Cartesian ] 0
end
*xyz 0 1
 C        1.0794830000     0.2234260000    -0.3240040000 
 C        2.5860200000     0.1009550000    -0.1736590000 
 C        2.9931880000    -0.7625470000     1.0177870000 
 C        4.4704780000    -0.9318930000     1.1406420000 
 C        5.2027320000    -0.5740390000     2.1888910000 
 C        6.6809510000    -0.7511980000     2.2909770000 
 N        7.3257610000     0.5244870000     2.5765920000 
 H        0.8116700000     0.8462710000    -1.1805310000 
 H        0.6292140000     0.6719820000     0.5660380000 
 H        0.6164320000    -0.7569410000    -0.4677960000 
 H        3.0326710000     1.0944580000    -0.0613710000 
 H        3.0151340000    -0.3236110000    -1.0884610000 
 H        2.5224820000    -1.7489420000     0.9078640000 
 H        2.5940300000    -0.3302140000     1.9415700000 
 H        4.9744210000    -1.3842320000     0.2851510000 
 H        4.7253630000    -0.1037110000     3.0473300000 
 H        7.0464800000    -1.2508690000     1.3804230000 
 H        6.9043060000    -1.4216340000     3.1297820000 
 H        7.2024300000     1.1584030000     1.7964900000 
 H        8.3212260000     0.4014680000     2.7121930000 
*
