! RI PBE def2-SVP def2-SVP/J NBO PAL2
% maxcore 2000
% output
    # printlevel mini
    print[ P_Basis ] 0
    print[ P_SCFInfo ] 1
    print[ P_SCFIterInfo ] 1
    print[ P_OrbEn ] 0
    print[ P_Cartesian ] 0
end
*xyz 0 1
 C        0.7574530000    -0.0370380000    -0.0927820000 
 C        2.2754190000     0.0003870000    -0.0715120000 
 C        2.8447060000    -0.2509050000     1.3250380000 
 C        4.3301540000    -0.2627270000     1.3449940000 
 C        5.0850410000     0.5582120000     2.0768730000 
 C        6.5056850000     0.5178300000     2.0577070000 
 N        7.6582420000     0.5024830000     2.0569490000 
 H        0.3713170000     0.1469790000    -1.0973860000 
 H        0.3338070000     0.7224990000     0.5698870000 
 H        0.3810980000    -1.0096670000     0.2358210000 
 H        2.6315980000     0.9704090000    -0.4325340000 
 H        2.6754020000    -0.7490050000    -0.7630640000 
 H        2.4814420000    -1.2249240000     1.6786720000 
 H        2.4658010000     0.5000410000     2.0255000000 
 H        4.8249560000    -0.9889120000     0.7035790000 
 H        4.6365880000     1.3014280000     2.7294660000 
*
