! RI PBE def2-SVP def2-SVP/J NBO PAL2
% maxcore 2000
% output
    # printlevel mini
    print[ P_Basis ] 0
    print[ P_SCFInfo ] 1
    print[ P_SCFIterInfo ] 1
    print[ P_OrbEn ] 0
    print[ P_Cartesian ] 0
end
*xyz 0 1
 C        1.0255080000    -0.0870480000    -0.1386350000 
 C        2.5125910000     0.1350140000     0.0783600000 
 C        3.3376810000    -0.2424670000    -1.1494200000 
 C        4.8195730000    -0.1022820000    -0.9602480000 
 C        5.6489430000    -1.1361240000    -1.0703290000 
 C        5.3483580000     1.2677620000    -0.6325210000 
 N        4.8873780000     2.2571000000    -1.5977220000 
 H        0.4460080000     0.1891080000     0.7454260000 
 H        0.8109470000    -1.1360360000    -0.3622640000 
 H        0.6578040000     0.5104390000    -0.9775730000 
 H        2.8547140000    -0.4512930000     0.9385180000 
 H        2.6895860000     1.1863390000     0.3250290000 
 H        3.0266760000     0.4011100000    -1.9797910000 
 H        3.1118340000    -1.2744280000    -1.4364030000 
 H        5.2846850000    -2.1349600000    -1.2862560000 
 H        6.7204050000    -1.0184800000    -0.9437080000 
 H        6.4420430000     1.2075350000    -0.5371290000 
 H        4.9651000000     1.5692320000     0.3492760000 
 H        5.3084570000     2.0864860000    -2.5029950000 
 H        5.1573400000     3.1890120000    -1.3113050000 
*
