! RI PBE def2-SVP def2-SVP/J NBO PAL2
% maxcore 2000
% output
    # printlevel mini
    print[ P_Basis ] 0
    print[ P_SCFInfo ] 1
    print[ P_SCFIterInfo ] 1
    print[ P_OrbEn ] 0
    print[ P_Cartesian ] 0
end
*xyz 0 1
 C        1.1759420000     1.9910620000    -1.5193830000 
 C        2.6921090000     1.8835310000    -1.5603190000 
 C        3.2734070000     1.3925100000    -0.2439260000 
 C        4.8107670000     1.3260450000    -0.1505680000 
 C        5.1866350000     0.8374690000     1.2435600000 
 C        5.3822860000     0.3709410000    -1.1922070000 
 N        5.4614300000     2.6230000000    -0.3418070000 
 H        0.7724710000     2.3450020000    -2.4709980000 
 H        0.8512320000     2.6869030000    -0.7405850000 
 H        0.7175160000     1.0216990000    -1.3044230000 
 H        3.1129450000     2.8649350000    -1.8079180000 
 H        2.9827930000     1.2100300000    -2.3728750000 
 H        2.8650640000     0.3977040000    -0.0252040000 
 H        2.9181490000     2.0471810000     0.5633300000 
 H        4.7642790000    -0.1507980000     1.4406940000 
 H        4.8071390000     1.5209580000     2.0096440000 
 H        6.2721340000     0.7834890000     1.3454700000 
 H        4.9329430000    -0.6211270000    -1.1022510000 
 H        6.4618680000     0.2791040000    -1.0593720000 
 H        5.2018860000     0.7308040000    -2.2085180000 
 H        5.1018770000     3.2985250000     0.3238820000 
 H        5.2674100000     2.9873300000    -1.2670260000 
*
