! RI PBE def2-SVP def2-SVP/J NBO PAL2
% maxcore 2000
% output
    # printlevel mini
    print[ P_Basis ] 0
    print[ P_SCFInfo ] 1
    print[ P_SCFIterInfo ] 1
    print[ P_OrbEn ] 0
    print[ P_Cartesian ] 0
end
*xyz 0 1
 C        1.0426510000     0.0814590000    -0.0462320000 
 C        2.5611270000     0.0775410000    -0.0013540000 
 C        3.1417360000    -1.3242600000    -0.0828110000 
 C        4.6723810000    -1.3772530000    -0.0280300000 
 C        5.2030100000    -2.8102980000    -0.0056030000 
 C        5.2557690000    -0.6416170000    -1.1477750000 
 N        5.7095960000    -0.0752390000    -2.0401510000 
 H        0.6463820000     1.0970560000     0.0153540000 
 H        0.6187750000    -0.4914130000     0.7834700000 
 H        0.6749940000    -0.3617130000    -0.9757060000 
 H        2.9042490000     0.5570110000     0.9228480000 
 H        2.9567380000     0.6817820000    -0.8242230000 
 H        2.8052900000    -1.8147590000    -1.0029730000 
 H        2.7648810000    -1.9303260000     0.7486020000 
 H        5.0032100000    -0.8629070000     0.8826920000 
 H        4.8905420000    -3.3505740000    -0.9013150000 
 H        4.8083860000    -3.3338240000     0.8671950000 
 H        6.2924940000    -2.8301450000     0.0416120000 
*
