! RI PBE def2-SVP def2-SVP/J NBO PAL2
% maxcore 2000
% output
    # printlevel mini
    print[ P_Basis ] 0
    print[ P_SCFInfo ] 1
    print[ P_SCFIterInfo ] 1
    print[ P_OrbEn ] 0
    print[ P_Cartesian ] 0
end
*xyz 0 1
 C        0.8721500000     0.0011100000    -0.0524530000 
 C        2.3902040000    -0.0510190000    -0.0915010000 
 C        2.9329760000    -0.5963610000    -1.4029260000 
 C        4.4509530000    -0.6322800000    -1.4576960000 
 C        5.0173000000    -1.2469130000    -2.7324330000 
 C        6.5250410000    -1.0384700000    -2.8207660000 
 N        4.6133320000    -2.6469560000    -2.8159860000 
 H        0.5059940000     0.3886660000     0.9012940000 
 H        0.4410060000    -0.9937500000    -0.1953100000 
 H        0.4796440000     0.6447310000    -0.8449740000 
 H        2.7565410000    -0.6713410000     0.7351990000 
 H        2.7961910000     0.9526970000     0.0833120000 
 H        2.5587740000     0.0182630000    -2.2318470000 
 H        2.5466730000    -1.6053520000    -1.5761290000 
 H        4.8378480000    -1.1995870000    -0.5990120000 
 H        4.8479530000     0.3836180000    -1.3489830000 
 H        4.5493630000    -0.7387690000    -3.5856680000 
 H        7.0275050000    -1.5081510000    -1.9684960000 
 H        6.7872310000     0.0235510000    -2.8200250000 
 H        6.9291080000    -1.4836170000    -3.7341880000 
 H        5.0574380000    -3.1749950000    -2.0714520000 
 H        4.9301860000    -3.0546640000    -3.6875410000 
*
