! RI PBE def2-SVP def2-SVP/J NBO PAL2
% maxcore 2000
% output
    # printlevel mini
    print[ P_Basis ] 0
    print[ P_SCFInfo ] 1
    print[ P_SCFIterInfo ] 1
    print[ P_OrbEn ] 0
    print[ P_Cartesian ] 0
end
*xyz 0 1
 C        0.9549920000    -0.0186780000     0.0466760000 
 C        2.4736060000     0.0175450000     0.0563800000 
 C        3.0340570000     1.2517710000     0.7454650000 
 C        4.5527600000     1.2894360000     0.7556460000 
 C        5.0910130000     2.5387730000     1.4537020000 
 C        6.5440760000     2.5911600000     1.4721360000 
 N        7.6936030000     2.6149770000     1.4770950000 
 H        0.5804310000    -0.9144520000    -0.4532760000 
 H        0.5421920000     0.8493160000    -0.4749000000 
 H        0.5529550000    -0.0138820000     1.0636350000 
 H        2.8494990000    -0.0221660000    -0.9723340000 
 H        2.8602000000    -0.8791630000     0.5539530000 
 H        2.6602590000     1.2926100000     1.7763420000 
 H        2.6492300000     2.1509290000     0.2479460000 
 H        4.9355110000     1.2596270000    -0.2690090000 
 H        4.9465680000     0.4011480000     1.2588180000 
 H        4.7351550000     2.5819400000     2.4880320000 
 H        4.7236920000     3.4424080000     0.9568920000 
*
