! RI PBE def2-SVP def2-SVP/J NBO PAL2
% maxcore 2000
% output
    # printlevel mini
    print[ P_Basis ] 0
    print[ P_SCFInfo ] 1
    print[ P_SCFIterInfo ] 1
    print[ P_OrbEn ] 0
    print[ P_Cartesian ] 0
end
*xyz 0 1
 C        0.4149520000    -0.1109330000     1.0534030000 
 C        1.7156090000    -0.3021510000     0.2921020000 
 C        2.6440880000    -1.3159180000     0.9424760000 
 C        3.9490340000    -1.5108620000     0.1883990000 
 C        4.8685790000    -2.5263330000     0.8385350000 
 N        6.1134760000    -2.6611420000     0.1131270000 
 C        6.9934430000    -3.6621740000     0.6713590000 
 H       -0.2323720000     0.6221740000     0.5665190000 
 H        0.6026320000     0.2375110000     2.0730300000 
 H       -0.1418330000    -1.0496870000     1.1249620000 
 H        2.2364650000     0.6584340000     0.2053310000 
 H        1.4976290000    -0.6202790000    -0.7341280000 
 H        2.1230030000    -2.2776570000     1.0301770000 
 H        2.8622330000    -0.9970860000     1.9695630000 
 H        4.4817130000    -0.5574850000     0.1053950000 
 H        3.7282440000    -1.8304600000    -0.8387960000 
 H        4.3353430000    -3.4906270000     0.9432530000 
 H        5.1078320000    -2.2008070000     1.8585840000 
 H        5.9153010000    -2.8798820000    -0.8557190000 
 H        6.5330630000    -4.6601210000     0.7718910000 
 H        7.3164460000    -3.3498440000     1.6687560000 
 H        7.8875990000    -3.7588820000     0.0520820000 
*
