! RI PBE def2-SVP def2-SVP/J NBO PAL2
% maxcore 2000
% output
    # printlevel mini
    print[ P_Basis ] 0
    print[ P_SCFInfo ] 1
    print[ P_SCFIterInfo ] 1
    print[ P_OrbEn ] 0
    print[ P_Cartesian ] 0
end
*xyz 0 1
 C        3.1085570000    -1.8510020000    -0.3968670000 
 C        3.0505250000    -0.5349890000     0.3712840000 
 C        3.1665810000     0.6564700000    -0.5205570000 
 C        4.1040120000     1.5930720000    -0.4370030000 
 C        4.2032250000     2.7751490000    -1.3414100000 
 N        5.4971190000     2.8251650000    -1.9944660000 
 C        5.6448720000     3.9583370000    -2.8789890000 
 H        2.9844340000    -2.7050180000     0.2729490000 
 H        4.0657850000    -1.9599080000    -0.9121260000 
 H        2.3185530000    -1.9016870000    -1.1511350000 
 H        3.8422060000    -0.5043030000     1.1258960000 
 H        2.0991400000    -0.4850960000     0.9155880000 
 H        2.4120940000     0.7438530000    -1.3038010000 
 H        4.8760820000     1.5169670000     0.3271380000 
 H        4.1023570000     3.6966210000    -0.7520120000 
 H        3.3588140000     2.7685000000    -2.0539900000 
 H        5.6445770000     1.9620870000    -2.5029210000 
 H        5.6218770000     4.8830770000    -2.2950180000 
 H        4.8583400000     4.0345760000    -3.6490730000 
 H        6.6124510000     3.9114310000    -3.3825870000 
*
