! RI PBE def2-SVP def2-SVP/J NBO PAL2
% maxcore 2000
% output
    # printlevel mini
    print[ P_Basis ] 0
    print[ P_SCFInfo ] 1
    print[ P_SCFIterInfo ] 1
    print[ P_OrbEn ] 0
    print[ P_Cartesian ] 0
end
*xyz 0 1
 C        2.2649730000    -1.5000690000    -0.3654690000 
 C        2.0964780000    -0.0153470000    -0.0551050000 
 C        2.7453250000     0.8929630000    -1.0600610000 
 C        2.0410530000     1.7475150000    -1.7952310000 
 C        4.2386260000     0.7726280000    -1.1767330000 
 N        4.8566430000     1.8363280000    -1.9284710000 
 C        6.2918050000     1.7004290000    -2.0242110000 
 H        1.7410250000    -2.1107630000     0.3732780000 
 H        3.3147480000    -1.8020290000    -0.3533940000 
 H        1.8590810000    -1.7395100000    -1.3513500000 
 H        2.5191160000     0.1888560000     0.9369700000 
 H        1.0320160000     0.2265400000     0.0027500000 
 H        0.9642940000     1.8196660000    -1.6855320000 
 H        2.5163010000     2.3804690000    -2.5348270000 
 H        4.4822640000    -0.1753800000    -1.6750480000 
 H        4.6567390000     0.6752950000    -0.1545520000 
 H        4.6159260000     2.7258640000    -1.5085710000 
 H        6.5379150000     0.8125890000    -2.6138420000 
 H        6.8003040000     1.6014140000    -1.0499600000 
 H        6.7111760000     2.5652220000    -2.5418490000 
*
