! RI PBE def2-SVP def2-SVP/J NBO PAL2
% maxcore 2000
% output
    # printlevel mini
    print[ P_Basis ] 0
    print[ P_SCFInfo ] 1
    print[ P_SCFIterInfo ] 1
    print[ P_OrbEn ] 0
    print[ P_Cartesian ] 0
end
*xyz 0 1
 C        1.2860350000    -0.6170960000    -0.1066950000 
 C        2.5907230000     0.0313660000     0.3266830000 
 C        3.0119150000     1.2311140000    -0.5196420000 
 C        2.0939140000     2.4292420000    -0.3228540000 
 C        4.4553930000     1.6288080000    -0.2312470000 
 N        5.3986700000     0.5948670000    -0.6003150000 
 C        6.7700570000     0.9433210000    -0.3066330000 
 H        1.0566860000    -1.4883390000     0.5113850000 
 H        1.3435400000    -0.9571520000    -1.1451380000 
 H        0.4374320000     0.0672110000    -0.0304960000 
 H        3.3964920000    -0.7066950000     0.2925860000 
 H        2.5132780000     0.3552770000     1.3726560000 
 H        2.9589410000     0.9328810000    -1.5780830000 
 H        2.1302130000     2.7757110000     0.7152220000 
 H        1.0552070000     2.1867380000    -0.5544770000 
 H        2.3878810000     3.2656280000    -0.9623990000 
 H        4.5657690000     1.8154040000     0.8453470000 
 H        4.6734970000     2.5904740000    -0.7320050000 
 H        5.3013400000     0.3919630000    -1.5879910000 
 H        6.9046570000     1.0181500000     0.7762390000 
 H        7.0939910000     1.9021490000    -0.7463650000 
 H        7.4383790000     0.1588870000    -0.6676770000 
*
