! RI PBE def2-SVP def2-SVP/J NBO PAL2
% maxcore 2000
% output
    # printlevel mini
    print[ P_Basis ] 0
    print[ P_SCFInfo ] 1
    print[ P_SCFIterInfo ] 1
    print[ P_OrbEn ] 0
    print[ P_Cartesian ] 0
end
*xyz 0 1
 C       -0.0686800000     0.3153440000    -0.2691160000 
 C        1.4323640000     0.4063360000    -0.0523760000 
 C        1.9920190000     1.7680200000     0.3854180000 
 C        1.3346940000     2.2214980000     1.6924160000 
 C        1.7567640000     2.8120810000    -0.7005900000 
 N        3.4364660000     1.5513040000     0.5268330000 
 C        4.2569260000     2.6714210000     0.9326990000 
 H       -0.3421730000    -0.6927040000    -0.5892630000 
 H       -0.4142680000     1.0032650000    -1.0442570000 
 H       -0.6311740000     0.5285860000     0.6426610000 
 H        1.9600410000     0.1209970000    -0.9676150000 
 H        1.7231280000    -0.3308410000     0.7076090000 
 H        1.4576720000     1.4620020000     2.4708840000 
 H        0.2653400000     2.4028600000     1.5644140000 
 H        1.7769170000     3.1520990000     2.0548310000 
 H        0.6904820000     2.9321340000    -0.8985420000 
 H        2.2545970000     2.5154130000    -1.6267170000 
 H        2.1402890000     3.7905780000    -0.4033490000 
 H        3.5839330000     0.7760400000     1.1616520000 
 H        4.2822840000     3.4298630000     0.1473290000 
 H        5.2821250000     2.3201100000     1.0669730000 
 H        3.9511520000     3.1669950000     1.8674030000 
*
