! RI PBE def2-SVP def2-SVP/J NBO PAL2
% maxcore 2000
% output
    # printlevel mini
    print[ P_Basis ] 0
    print[ P_SCFInfo ] 1
    print[ P_SCFIterInfo ] 1
    print[ P_OrbEn ] 0
    print[ P_Cartesian ] 0
end
*xyz 0 1
 C        1.5165000000     1.4471140000     0.2308510000 
 C        1.5008160000    -0.0137990000     0.6515580000 
 C        2.0764010000    -0.9738830000    -0.3852720000 
 C        2.2850940000    -2.3577460000     0.2279180000 
 C        2.8583050000    -3.3855220000    -0.7304160000 
 N        1.2153480000    -1.0429650000    -1.5646110000 
 C        1.8801780000    -0.8438240000    -2.8338540000 
 H        1.0735180000     2.0846030000     0.9992930000 
 H        0.9553560000     1.6165890000    -0.6924590000 
 H        2.5389990000     1.7942770000     0.0593650000 
 H        0.4747920000    -0.3305210000     0.8794240000 
 H        2.0637460000    -0.1282250000     1.5829770000 
 H        3.0638750000    -0.5844140000    -0.6869890000 
 H        2.9442620000    -2.2555850000     1.0979590000 
 H        1.3177610000    -2.7103880000     0.6040270000 
 H        2.1907700000    -3.5332460000    -1.5818000000 
 H        3.8354900000    -3.0739880000    -1.1124970000 
 H        2.9905880000    -4.3519520000    -0.2382850000 
 H        0.4562550000    -0.3829800000    -1.4746180000 
 H        2.5830390000    -1.6580140000    -3.0243940000 
 H        2.4449230000     0.1010630000    -2.9003390000 
 H        1.1422840000    -0.8571830000    -3.6394470000 
*
