! RI PBE def2-SVP def2-SVP/J NBO PAL2
% maxcore 2000
% output
    # printlevel mini
    print[ P_Basis ] 0
    print[ P_SCFInfo ] 1
    print[ P_SCFIterInfo ] 1
    print[ P_OrbEn ] 0
    print[ P_Cartesian ] 0
end
*xyz 0 1
 C        0.9965150000    -0.2030490000    -0.3553180000 
 C        2.3668050000     0.2298430000     0.1599070000 
 C        2.9365850000    -0.7004880000     1.1225140000 
 C        3.3831060000    -1.4885680000     1.9139700000 
 C        3.9495940000    -2.4231130000     2.8746940000 
 N        4.9012680000    -3.3314300000     2.2598570000 
 C        5.5864200000    -4.1498650000     3.2340500000 
 H        0.6118280000     0.5230320000    -1.0747950000 
 H        0.2818410000    -0.2852240000     0.4653400000 
 H        1.0569530000    -1.1758220000    -0.8460610000 
 H        2.2945140000     1.2209480000     0.6208710000 
 H        3.0610690000     0.3379180000    -0.6804860000 
 H        3.1436160000    -3.0214030000     3.3175020000 
 H        4.3930610000    -1.8473420000     3.7084940000 
 H        5.5651710000    -2.7961260000     1.7152130000 
 H        4.8700440000    -4.8203340000     3.7179270000 
 H        6.0917470000    -3.5757020000     4.0294670000 
 H        6.3308550000    -4.7710680000     2.7331660000 
*
