! RI PBE def2-SVP def2-SVP/J NBO PAL2
% maxcore 2000
% output
    # printlevel mini
    print[ P_Basis ] 0
    print[ P_SCFInfo ] 1
    print[ P_SCFIterInfo ] 1
    print[ P_OrbEn ] 0
    print[ P_Cartesian ] 0
end
*xyz 0 1
 C        0.9169720000     1.0094640000     2.1926770000 
 C        2.4181250000     1.2325690000     2.1110630000 
 C        3.1478700000     0.0378450000     1.5135280000 
 C        4.6728260000     0.1251700000     1.5036780000 
 C        5.1782830000     1.3285120000     0.7214680000 
 N        5.1660080000     0.1539510000     2.8731790000 
 C        6.5936590000    -0.0365990000     3.0060510000 
 H        0.4049900000     1.8785570000     2.6124540000 
 H        0.6784410000     0.1482350000     2.8237650000 
 H        0.4890130000     0.8187460000     1.2039010000 
 H        2.8217590000     1.4413880000     3.1058250000 
 H        2.6168860000     2.1245640000     1.5085500000 
 H        2.8058410000    -0.1216500000     0.4844220000 
 H        2.8595030000    -0.8676400000     2.0651840000 
 H        5.0409980000    -0.7801510000     0.9825420000 
 H        4.9270490000     2.2589410000     1.2349580000 
 H        4.7319690000     1.3477630000    -0.2758700000 
 H        6.2619570000     1.2967450000     0.5931650000 
 H        4.6853510000    -0.5633840000     3.4021180000 
 H        7.1328360000     0.8467400000     2.6569600000 
 H        6.9798400000    -0.9062060000     2.4462500000 
 H        6.8456250000    -0.1711670000     4.0597310000 
*
