! RI PBE def2-SVP def2-SVP/J NBO PAL2
% maxcore 2000
% output
    # printlevel mini
    print[ P_Basis ] 0
    print[ P_SCFInfo ] 1
    print[ P_SCFIterInfo ] 1
    print[ P_OrbEn ] 0
    print[ P_Cartesian ] 0
end
*xyz 0 1
 C        0.8528950000    -0.1476140000     0.0987550000 
 C        2.3326000000    -0.0113880000     0.1809930000 
 C        3.0407340000     0.8661270000     0.8969930000 
 C        2.4571700000     1.9061760000     1.8054720000 
 C        4.5305630000     0.8144360000     0.8044760000 
 N        5.1938180000     1.0331010000     1.9893750000 
 N        5.2099560000     0.6434290000    -0.2619670000 
 H        0.5180260000    -0.0620880000    -0.9401550000 
 H        0.3164800000     0.5948320000     0.6884550000 
 H        0.5398320000    -1.1391290000     0.4417890000 
 H        2.8977820000    -0.7288330000    -0.4104580000 
 H        1.3856530000     2.0260630000     1.6522630000 
 H        2.9390860000     2.8732070000     1.6436090000 
 H        2.6083300000     1.6554580000     2.8606900000 
 H        4.7484540000     0.7288200000     2.8379890000 
 H        6.1849380000     0.8568890000     1.9388150000 
 H        4.5921920000     0.6156050000    -1.0669930000 
*
