! RI PBE def2-SVP def2-SVP/J NBO PAL2
% maxcore 2000
% output
    # printlevel mini
    print[ P_Basis ] 0
    print[ P_SCFInfo ] 1
    print[ P_SCFIterInfo ] 1
    print[ P_OrbEn ] 0
    print[ P_Cartesian ] 0
end
*xyz 0 1
 C        1.0405080000     0.6430420000    -2.0374660000 
 C        2.5139580000     0.8471050000    -2.0203320000 
 C        3.3199580000     0.4595160000    -1.0312100000 
 C        4.7715690000     0.6372300000    -0.9683370000 
 C        5.5111260000     0.1302120000     0.2340110000 
 N        5.3713820000     1.2210330000    -1.9420430000 
 N        6.6907680000     1.3858690000    -1.8916440000 
 H        0.5091350000     1.5979390000    -2.1153140000 
 H        0.6930310000     0.1336400000    -1.1359220000 
 H        0.7329190000     0.0483540000    -2.9046360000 
 H        2.9577430000     1.3479810000    -2.8774840000 
 H        2.8786900000    -0.0421860000    -0.1718430000 
 H        4.8344030000    -0.3333390000     0.9504300000 
 H        6.0373280000     0.9422980000     0.7509240000 
 H        6.2627840000    -0.6182970000    -0.0458380000 
 H        7.1117280000     1.8458570000    -2.6728850000 
 H        7.2573710000     1.0741570000    -1.1202200000 
*
