! RI PBE def2-SVP def2-SVP/J NBO PAL2
% maxcore 2000
% output
    # printlevel mini
    print[ P_Basis ] 0
    print[ P_SCFInfo ] 1
    print[ P_SCFIterInfo ] 1
    print[ P_OrbEn ] 0
    print[ P_Cartesian ] 0
end
*xyz 0 1
 C        0.8925210000     0.3481090000    -0.8167620000 
 C        2.3822150000     0.3703350000    -0.8463940000 
 C        3.1606500000    -0.6939200000    -1.0021690000 
 C        4.6581470000    -0.6667470000    -1.0346040000 
 C        5.2019620000    -1.1243240000    -2.3497920000 
 N        5.9417430000    -2.1499080000    -2.4349160000 
 N        6.4583870000    -2.4811030000    -3.6497660000 
 H        0.5106950000     0.7367380000     0.1328220000 
 H        0.5057380000    -0.6640320000    -0.9502180000 
 H        0.4719130000     0.9812450000    -1.6046850000 
 H        2.8548480000     1.3445570000    -0.7225080000 
 H        2.6999870000    -1.6730140000    -1.1296410000 
 H        5.0728870000    -1.3208380000    -0.2616880000 
 H        5.0039580000     0.3529630000    -0.8277720000 
 H        4.9277480000    -0.5419220000    -3.2404410000 
 H        6.6532030000    -3.4687840000    -3.6914350000 
 H        5.9163150000    -2.1647660000    -4.4492420000 
*
