! RI PBE def2-SVP def2-SVP/J NBO PAL2
% maxcore 2000
% output
    # printlevel mini
    print[ P_Basis ] 0
    print[ P_SCFInfo ] 1
    print[ P_SCFIterInfo ] 1
    print[ P_OrbEn ] 0
    print[ P_Cartesian ] 0
end
*xyz 0 1
 C        0.7489440000    -1.5237170000     0.8702370000 
 C        2.2107050000    -1.2588400000     0.7577490000 
 C        3.0090920000    -1.7561020000    -0.1811560000 
 C        4.4754160000    -1.4822810000    -0.2885610000 
 C        5.3377200000    -2.7200390000    -0.1193660000 
 N        5.0569870000    -3.4369380000     1.0098390000 
 N        6.2898150000    -3.0780690000    -0.8855320000 
 H        0.4999330000    -1.9651660000     1.8404500000 
 H        0.4033250000    -2.2012370000     0.0872540000 
 H        0.1756770000    -0.5942490000     0.7955810000 
 H        2.6423080000    -0.5927300000     1.5047020000 
 H        2.5875740000    -2.4199890000    -0.9354510000 
 H        4.7687290000    -0.7556350000     0.4765810000 
 H        4.7094910000    -1.0458650000    -1.2635290000 
 H        4.1291450000    -3.3610470000     1.3903320000 
 H        5.5042390000    -4.3359060000     1.0787600000 
 H        6.4042000000    -2.4135910000    -1.6440920000 
*
