! RI PBE def2-SVP def2-SVP/J NBO PAL2
% maxcore 2000
% output
    # printlevel mini
    print[ P_Basis ] 0
    print[ P_SCFInfo ] 1
    print[ P_SCFIterInfo ] 1
    print[ P_OrbEn ] 0
    print[ P_Cartesian ] 0
end
*xyz 0 1
 C        3.0677190000    -0.3714470000    -1.2454770000 
 C        2.3180470000    -0.2521610000     0.0465110000 
 C        1.0210700000     0.0733120000     0.0529040000 
 C        3.0822100000    -0.4940990000     1.2776920000 
 C        2.4412190000    -0.4913020000     2.6310780000 
 N        4.3385760000    -0.7161620000     1.1281440000 
 N        5.0847110000    -0.9802110000     2.2254770000 
 H        2.4036810000    -0.1891690000    -2.0909010000 
 H        3.5128640000    -1.3634810000    -1.3467800000 
 H        3.8953370000     0.3400460000    -1.2824350000 
 H        0.4948780000     0.2503040000    -0.8775630000 
 H        0.4417280000     0.1828520000     0.9603040000 
 H        1.3572510000    -0.4430740000     2.5808730000 
 H        2.7803920000     0.3612890000     3.2323520000 
 H        2.7130610000    -1.4024930000     3.1738370000 
 H        6.0630810000    -0.8435930000     2.0298370000 
 H        4.7965640000    -0.5396130000     3.0921450000 
*
