! RI PBE def2-SVP def2-SVP/J NBO PAL2
% maxcore 2000
% output
    # printlevel mini
    print[ P_Basis ] 0
    print[ P_SCFInfo ] 1
    print[ P_SCFIterInfo ] 1
    print[ P_OrbEn ] 0
    print[ P_Cartesian ] 0
end
*xyz 0 1
 C        2.5424310000     1.5506290000     0.6983470000 
 C        2.5650850000     0.0961780000     0.3522560000 
 C        1.9026470000    -0.8181020000     1.0538830000 
 C        3.3968070000    -0.2827630000    -0.8472690000 
 C        4.8599350000    -0.0935970000    -0.6056000000 
 N        5.5334390000     0.7536570000    -1.2654230000 
 N        6.8425920000     0.9383620000    -0.9449740000 
 H        1.9612430000     1.7398560000     1.6015130000 
 H        2.1094340000     2.1333060000    -0.1216720000 
 H        3.5561970000     1.9348360000     0.8455310000 
 H        1.3106820000    -0.5471490000     1.9214830000 
 H        1.9254330000    -1.8677280000     0.7804530000 
 H        3.1205350000     0.3329210000    -1.7088470000 
 H        3.2014740000    -1.3296460000    -1.1020590000 
 H        5.3230130000    -0.7015820000     0.1841750000 
 H        7.3565750000     1.2768640000    -1.7427060000 
 H        7.2972700000     0.1422710000    -0.5061810000 
*
