! RI PBE def2-SVP def2-SVP/J NBO PAL2
% maxcore 2000
% output
    # printlevel mini
    print[ P_Basis ] 0
    print[ P_SCFInfo ] 1
    print[ P_SCFIterInfo ] 1
    print[ P_OrbEn ] 0
    print[ P_Cartesian ] 0
end
*xyz 0 1
 C        3.8912340000     1.7648500000    -1.0457030000 
 C        3.4444220000     0.3392710000    -0.9794080000 
 C        2.9592580000    -0.3114700000    -2.0336790000 
 C        3.5900440000    -0.3319110000     0.3586020000 
 C        5.0383700000    -0.5128950000     0.7763460000 
 N        5.7945950000    -1.1822060000    -0.1427290000 
 N        5.5497890000    -0.1475550000     1.8842280000 
 H        3.8074650000     2.1674410000    -2.0554730000 
 H        4.9290330000     1.8656600000    -0.7125440000 
 H        3.2889240000     2.3867000000    -0.3750700000 
 H        2.8633350000     0.1697530000    -3.0010950000 
 H        2.6278910000    -1.3418030000    -1.9594610000 
 H        3.1143080000    -1.3165710000     0.3318900000 
 H        3.0908100000     0.2604120000     1.1304930000 
 H        5.4922070000    -1.1703070000    -1.1018160000 
 H        6.7862960000    -1.1953470000     0.0264530000 
 H        4.8476300000     0.2881660000     2.4730680000 
*
