! RI PBE def2-SVP def2-SVP/J NBO PAL2
% maxcore 2000
% output
    # printlevel mini
    print[ P_Basis ] 0
    print[ P_SCFInfo ] 1
    print[ P_SCFIterInfo ] 1
    print[ P_OrbEn ] 0
    print[ P_Cartesian ] 0
end
*xyz 0 1
 C        1.0813250000    -0.1105340000     0.2027340000 
 C        2.4931330000     0.4265290000    -0.0500380000 
 C        2.5778100000     1.0806980000    -1.3981940000 
 C        3.3701890000     0.6894810000    -2.3853350000 
 C        2.8846590000     1.3959300000     1.0240500000 
 N        3.8429030000     1.1501140000     1.8141830000 
 N        4.1014130000     2.0290750000     2.8215450000 
 H        0.7973180000    -0.8249350000    -0.5728440000 
 H        0.3463170000     0.6998580000     0.1965330000 
 H        1.0274220000    -0.6073280000     1.1736610000 
 H        3.2083510000    -0.3994940000    -0.0092150000 
 H        1.9188470000     1.9351790000    -1.5525920000 
 H        4.0406950000    -0.1566610000    -2.2708970000 
 H        3.3793810000     1.1989590000    -3.3420790000 
 H        2.2965360000     2.3221630000     1.1074590000 
 H        5.0701840000     1.9737920000     3.0934140000 
 H        3.8122160000     2.9864840000     2.6401260000 
*
