! RI PBE def2-SVP def2-SVP/J NBO PAL2
% maxcore 2000
% output
    # printlevel mini
    print[ P_Basis ] 0
    print[ P_SCFInfo ] 1
    print[ P_SCFIterInfo ] 1
    print[ P_OrbEn ] 0
    print[ P_Cartesian ] 0
end
*xyz 0 1
 C        1.1187420000     0.3918290000    -0.2967350000 
 C        2.3829960000    -0.4303480000    -0.0642870000 
 C        2.6093240000    -0.8246530000     1.3637150000 
 C        1.7935380000    -0.5938650000     2.3829180000 
 C        2.3687750000    -1.6640270000    -0.9609940000 
 N        2.9007030000    -1.4621430000    -2.2078300000 
 N        1.9203390000    -2.8102610000    -0.6418840000 
 H        1.1382720000     1.3124360000     0.2899330000 
 H        0.2286420000    -0.1767800000    -0.0200760000 
 H        1.0210720000     0.6658780000    -1.3490920000 
 H        3.2488610000     0.1746230000    -0.3669800000 
 H        3.5394970000    -1.3583950000     1.5461610000 
 H        0.8499620000    -0.0730580000     2.2646620000 
 H        2.0485980000    -0.9193420000     3.3846380000 
 H        2.9611210000    -0.5244500000    -2.5620780000 
 H        2.7044510000    -2.1811660000    -2.8848510000 
 H        1.6156960000    -2.8116980000     0.3278690000 
*
