! RI PBE def2-SVP def2-SVP/J NBO PAL2
% maxcore 2000
% output
    # printlevel mini
    print[ P_Basis ] 0
    print[ P_SCFInfo ] 1
    print[ P_SCFIterInfo ] 1
    print[ P_OrbEn ] 0
    print[ P_Cartesian ] 0
end
*xyz 0 1
 C        1.0769640000    -0.0280980000    -0.0720700000 
 C        2.6051870000     0.0605210000    -0.0020120000 
 C        3.0270980000     0.6910190000     1.3177760000 
 C        3.1905750000    -1.3510690000    -0.1157520000 
 C        3.0871730000     0.8692490000    -1.1750590000 
 N        3.7585460000     1.9382400000    -1.0470390000 
 N        4.1533730000     2.6054120000    -2.1315690000 
 H        0.6924510000    -0.6653850000     0.7293710000 
 H        0.7484670000    -0.4548610000    -1.0244030000 
 H        0.6236350000     0.9608920000     0.0295500000 
 H        2.6649160000     0.0849160000     2.1527620000 
 H        2.6221040000     1.6994730000     1.4186890000 
 H        4.1136880000     0.7657730000     1.3879180000 
 H        2.8091770000    -1.9903170000     0.6856140000 
 H        4.2807830000    -1.3282440000    -0.0460180000 
 H        2.9219770000    -1.8153140000    -1.0693280000 
 H        2.8248130000     0.4828710000    -2.1716720000 
 H        4.6803100000     3.4408880000    -1.9839420000 
 H        3.9369500000     2.2884420000    -3.0642260000 
*
