! RI PBE def2-SVP def2-SVP/J NBO PAL2
% maxcore 2000
% output
    # printlevel mini
    print[ P_Basis ] 0
    print[ P_SCFInfo ] 1
    print[ P_SCFIterInfo ] 1
    print[ P_OrbEn ] 0
    print[ P_Cartesian ] 0
end
*xyz 0 1
 C        1.0384480000     0.3060820000    -0.0941940000 
 C        2.4955010000    -0.1142290000     0.1126850000 
 C        2.8487970000    -0.1243520000     1.5893660000 
 C        2.7640720000    -1.4302300000    -0.5724350000 
 C        2.7268240000    -1.4713180000    -2.0714270000 
 N        2.9900060000    -2.4592730000     0.1428740000 
 N        3.1490220000    -3.6648010000    -0.4823050000 
 H        0.8634010000     1.3033180000     0.3172720000 
 H        0.3687010000    -0.3929180000     0.4139680000 
 H        0.7611770000     0.3287430000    -1.1507970000 
 H        3.1262220000     0.6336450000    -0.3897640000 
 H        2.2422420000    -0.8548420000     2.1276220000 
 H        2.6707800000     0.8620750000     2.0252140000 
 H        3.8949320000    -0.3915660000     1.7470090000 
 H        2.5076000000    -0.4914680000    -2.4945530000 
 H        1.9713290000    -2.1796720000    -2.4276350000 
 H        3.6906860000    -1.7960690000    -2.4836510000 
 H        3.6462680000    -4.2958680000     0.1265380000 
 H        3.5799930000    -3.6263470000    -1.4008760000 
*
