! RI PBE def2-SVP def2-SVP/J NBO PAL2
% maxcore 2000
% output
    # printlevel mini
    print[ P_Basis ] 0
    print[ P_SCFInfo ] 1
    print[ P_SCFIterInfo ] 1
    print[ P_OrbEn ] 0
    print[ P_Cartesian ] 0
end
*xyz 0 1
 C        0.9561590000    -0.2242840000    -0.2042850000 
 C        2.4117990000     0.1282590000     0.0634900000 
 C        2.6312220000     1.6326530000     0.0006570000 
 C        2.8842740000    -0.4275440000     1.4123870000 
 C        2.8972940000    -1.9150350000     1.4820940000 
 N        2.1803300000    -2.5480500000     2.3197910000 
 N        2.2224770000    -3.8796880000     2.3502790000 
 H        0.6398620000     0.1299200000    -1.1888400000 
 H        0.3050850000     0.2395920000     0.5436110000 
 H        0.7893300000    -1.3026640000    -0.1593060000 
 H        3.0258000000    -0.3362410000    -0.7205490000 
 H        2.0468230000     2.1407690000     0.7744930000 
 H        2.3229540000     2.0387720000    -0.9662170000 
 H        3.6823830000     1.8911490000     0.1544210000 
 H        2.2424900000    -0.0507810000     2.2149910000 
 H        3.8968950000    -0.0488380000     1.6053560000 
 H        3.5476880000    -2.4545640000     0.7780950000 
 H        1.6415660000    -4.3364740000     3.0222180000 
 H        2.8068790000    -4.4134510000     1.7250150000 
*
