! RI PBE def2-SVP def2-SVP/J NBO PAL2
% maxcore 2000
% output
    # printlevel mini
    print[ P_Basis ] 0
    print[ P_SCFInfo ] 1
    print[ P_SCFIterInfo ] 1
    print[ P_OrbEn ] 0
    print[ P_Cartesian ] 0
end
*xyz 0 1
 C        0.9909300000    -0.4574220000     0.1783190000 
 C        2.4154650000    -0.1329870000    -0.2463270000 
 C        2.7690360000    -0.8212250000    -1.5569090000 
 C        2.6362570000     1.3795960000    -0.3700920000 
 C        2.3848920000     2.1539600000     0.8997190000 
 N        3.3075290000     1.9418380000     1.8901840000 
 N        1.4345060000     2.9791620000     1.1009410000 
 H        0.8525910000    -1.5355990000     0.2899910000 
 H        0.2772640000    -0.1070140000    -0.5743810000 
 H        0.7316200000     0.0197370000     1.1258080000 
 H        3.0955250000    -0.5195140000     0.5248200000 
 H        2.1196240000    -0.4707330000    -2.3652930000 
 H        2.6441150000    -1.9040100000    -1.4790770000 
 H        3.8029340000    -0.6214700000    -1.8502750000 
 H        1.9730740000     1.7715580000    -1.1467010000 
 H        3.6641090000     1.5670560000    -0.7006000000 
 H        3.8499710000     1.0974570000     1.8759580000 
 H        3.0626690000     2.3005080000     2.7982320000 
 H        0.8672880000     3.0722800000     0.2647950000 
*
