! RI PBE def2-SVP def2-SVP/J NBO PAL2
% maxcore 2000
% output
    # printlevel mini
    print[ P_Basis ] 0
    print[ P_SCFInfo ] 1
    print[ P_SCFIterInfo ] 1
    print[ P_OrbEn ] 0
    print[ P_Cartesian ] 0
end
*xyz 0 1
 C        1.0144600000     0.1149940000    -0.0414850000 
 C        2.4634630000     0.0876990000    -0.0511300000 
 C        3.6682990000     0.0406800000    -0.0676280000 
 C        5.0897460000     0.0654110000    -0.0564010000 
 C        5.7888740000     1.3156560000     0.3935910000 
 N        5.7161560000    -0.9935860000    -0.4358410000 
 N        7.0425190000    -0.9857700000    -0.4314470000 
 H        0.6067300000    -0.8021740000    -0.4740330000 
 H        0.6302270000     0.9582360000    -0.6220420000 
 H        0.6259660000     0.2058050000     0.9767630000 
 H        5.0700340000     2.0842060000     0.6687370000 
 H        6.4282490000     1.7180280000    -0.4016060000 
 H        6.4260310000     1.1195630000     1.2645920000 
 H        7.4910490000    -1.8277320000    -0.7311980000 
 H        7.5928080000    -0.1927050000    -0.1438650000 
*
