! RI PBE def2-SVP def2-SVP/J NBO PAL2
% maxcore 2000
% output
    # printlevel mini
    print[ P_Basis ] 0
    print[ P_SCFInfo ] 1
    print[ P_SCFIterInfo ] 1
    print[ P_OrbEn ] 0
    print[ P_Cartesian ] 0
end
*xyz 0 1
 C        1.0442690000    -0.1536370000     0.3993380000 
 C        2.4743950000    -0.0650950000     0.1692800000 
 C        3.6578880000    -0.0035670000    -0.0374140000 
 C        5.0895650000     0.0885880000    -0.2724960000 
 C        5.7617590000     1.3373780000     0.2867990000 
 N        5.2158420000     1.8036400000     1.4433670000 
 N        6.8026960000     1.8759420000    -0.2084800000 
 H        0.5650770000    -0.7579850000    -0.3748480000 
 H        0.5807200000     0.8358670000     0.3848840000 
 H        0.8277890000    -0.6147270000     1.3661100000 
 H        5.2964480000     0.0442230000    -1.3446970000 
 H        5.5860840000    -0.7773720000     0.1813810000 
 H        4.2482250000     1.5929600000     1.6204470000 
 H        5.5622810000     2.6923670000     1.7636350000 
 H        7.1081720000     1.3788190000    -1.0388870000 
*
