! RI PBE def2-SVP def2-SVP/J NBO PAL2
% maxcore 2000
% output
    # printlevel mini
    print[ P_Basis ] 0
    print[ P_SCFInfo ] 1
    print[ P_SCFIterInfo ] 1
    print[ P_OrbEn ] 0
    print[ P_Cartesian ] 0
end
*xyz 0 1
 C        1.9065370000     0.4713500000     0.6340660000 
 C        3.3291650000     0.0878860000     0.2386130000 
 C        3.3696960000    -1.0741000000    -0.6939000000 
 C        4.0124570000    -2.2167780000    -0.4633740000 
 C        4.0825060000    -3.3666390000    -1.3824840000 
 N        3.1682740000    -3.3928320000    -2.4097780000 
 N        4.9607870000    -4.2916990000    -1.3035720000 
 H        1.9052770000     1.3468630000     1.2867490000 
 H        1.4131990000    -0.3470680000     1.1632340000 
 H        1.3036140000     0.7111350000    -0.2457280000 
 H        3.9223950000    -0.1344960000     1.1302040000 
 H        3.8044800000     0.9481030000    -0.2488410000 
 H        2.8369480000    -0.9484310000    -1.6356260000 
 H        4.5749970000    -2.3375930000     0.4593550000 
 H        2.2510490000    -3.0323030000    -2.2085620000 
 H        3.1753050000    -4.2582100000    -2.9266120000 
 H        5.6102050000    -4.0966070000    -0.5472450000 
*
