! RI PBE def2-SVP def2-SVP/J NBO PAL2
% maxcore 2000
% output
    # printlevel mini
    print[ P_Basis ] 0
    print[ P_SCFInfo ] 1
    print[ P_SCFIterInfo ] 1
    print[ P_OrbEn ] 0
    print[ P_Cartesian ] 0
end
*xyz 0 1
 C        2.5418450000     1.4868240000    -0.4167770000 
 C        2.5733770000     0.0438260000     0.0789690000 
 C        3.0374260000    -0.0772450000     1.5017580000 
 C        2.1923810000    -0.3103240000     2.5117210000 
 C        4.4559250000     0.0758260000     1.7862550000 
 N        5.3137520000     0.2375890000     0.8573780000 
 N        6.6064240000     0.4278950000     1.2008950000 
 H        2.1910780000     1.5302410000    -1.4506960000 
 H        3.5362850000     1.9331190000    -0.3775400000 
 H        1.8695660000     2.0940260000     0.1940900000 
 H        3.2410600000    -0.5387070000    -0.5620140000 
 H        1.5755860000    -0.3956560000    -0.0009130000 
 H        1.1306270000    -0.4442370000     2.3408350000 
 H        2.5401370000    -0.3736510000     3.5375200000 
 H        4.7619220000     0.0398810000     2.8403780000 
 H        7.2277970000     0.1590740000     0.4555480000 
 H        6.8860140000     0.0568100000     2.1044910000 
*
