! RI PBE def2-SVP def2-SVP/J NBO PAL2
% maxcore 2000
% output
    # printlevel mini
    print[ P_Basis ] 0
    print[ P_SCFInfo ] 1
    print[ P_SCFIterInfo ] 1
    print[ P_OrbEn ] 0
    print[ P_Cartesian ] 0
end
*xyz 0 1
 C        2.9103390000    -0.0833730000    -1.5882820000 
 C        3.0173110000    -0.0534450000    -0.0640490000 
 C        3.3451740000     1.3097220000     0.4825270000 
 C        2.3804870000     2.1747660000     0.7947310000 
 C        4.7840870000     1.6794640000     0.6160610000 
 N        5.0537080000     2.7744470000     1.4032780000 
 N        5.7551190000     1.0884280000     0.0343160000 
 H        2.6878000000    -1.0933980000    -1.9401240000 
 H        3.8335380000     0.2447870000    -2.0707100000 
 H        2.1122920000     0.5794780000    -1.9294460000 
 H        3.7663380000    -0.7770020000     0.2710050000 
 H        2.0641200000    -0.3754020000     0.3630820000 
 H        1.3350450000     1.9008370000     0.6994660000 
 H        2.5934980000     3.1870610000     1.1156280000 
 H        4.4702550000     2.9085750000     2.2112030000 
 H        6.0389060000     2.9114360000     1.5661560000 
 H        5.4210830000     0.3486200000    -0.5732520000 
*
