! RI PBE def2-SVP def2-SVP/J NBO PAL2
% maxcore 2000
% output
    # printlevel mini
    print[ P_Basis ] 0
    print[ P_SCFInfo ] 1
    print[ P_SCFIterInfo ] 1
    print[ P_OrbEn ] 0
    print[ P_Cartesian ] 0
end
*xyz 0 1
 C        2.0414110000     1.1223720000    -1.0444140000 
 C        2.4636880000     0.2234940000     0.1131950000 
 C        3.0499830000     0.9742230000     1.2744630000 
 C        2.2011900000     1.8330120000     2.1001600000 
 C        0.8742950000     1.7566150000     2.1941960000 
 N        4.3140760000     0.8474250000     1.4588680000 
 N        4.9140140000     1.5087530000     2.4848480000 
 H        1.6149860000     0.5314500000    -1.8584240000 
 H        2.9015350000     1.6683160000    -1.4384970000 
 H        1.2941000000     1.8551880000    -0.7334110000 
 H        3.2194630000    -0.4885220000    -0.2228330000 
 H        1.6042560000    -0.3654180000     0.4538640000 
 H        2.7089090000     2.6225460000     2.6494920000 
 H        0.3007140000     1.0005480000     1.6697390000 
 H        0.3159360000     2.4534000000     2.8081370000 
 H        5.8226350000     1.1097140000     2.6579750000 
 H        4.3747190000     1.5827020000     3.3396640000 
*
