! RI PBE def2-SVP def2-SVP/J NBO PAL2
% maxcore 2000
% output
    # printlevel mini
    print[ P_Basis ] 0
    print[ P_SCFInfo ] 1
    print[ P_SCFIterInfo ] 1
    print[ P_OrbEn ] 0
    print[ P_Cartesian ] 0
end
*xyz 0 1
 C        2.9481250000     0.2441070000    -1.2038380000 
 C        2.5529310000    -0.1253470000     0.2152130000 
 C        3.0269390000     0.8784560000     1.2709920000 
 C        2.4467980000     0.5396820000     2.6417050000 
 C        4.5194180000     0.9251900000     1.3353860000 
 N        5.1716130000     1.9803040000     1.0776620000 
 N        6.5335330000     1.9257880000     1.0938480000 
 H        2.5915060000    -0.5000290000    -1.9197110000 
 H        4.0327790000     0.3207570000    -1.3096460000 
 H        2.5259440000     1.2116580000    -1.4885530000 
 H        2.9487860000    -1.1172660000     0.4677350000 
 H        1.4629830000    -0.2104670000     0.2859390000 
 H        2.6933790000     1.8795790000     0.9777940000 
 H        2.7879520000    -0.4439270000     2.9798000000 
 H        1.3547110000     0.5155660000     2.6048310000 
 H        2.7466540000     1.2750490000     3.3913410000 
 H        5.0363420000    -0.0064930000     1.6162960000 
 H        6.9170060000     2.8352890000     1.2970680000 
 H        6.9263130000     1.2066760000     1.6956260000 
*
