! RI PBE def2-SVP def2-SVP/J NBO PAL2
% maxcore 2000
% output
    # printlevel mini
    print[ P_Basis ] 0
    print[ P_SCFInfo ] 1
    print[ P_SCFIterInfo ] 1
    print[ P_OrbEn ] 0
    print[ P_Cartesian ] 0
end
*xyz 0 1
 C        3.4983860000     0.6357880000     1.1202390000 
 C        2.9224650000     0.2746670000    -0.2377700000 
 C        3.3856570000    -1.0810140000    -0.7648710000 
 C        2.6844070000    -1.4455040000    -2.0702680000 
 C        4.8933940000    -1.1259240000    -0.9602240000 
 N        5.5129250000    -2.2054200000    -0.3914680000 
 N        5.5823650000    -0.2996630000    -1.6429230000 
 H        3.1304700000     1.6063840000     1.4597030000 
 H        4.5892830000     0.6886160000     1.0838520000 
 H        3.2208890000    -0.1042610000     1.8768240000 
 H        3.1819440000     1.0496510000    -0.9680020000 
 H        1.8283230000     0.2638650000    -0.1883540000 
 H        3.1192220000    -1.8381090000    -0.0161210000 
 H        2.9027890000    -0.7065920000    -2.8453010000 
 H        1.6012250000    -1.4758200000    -1.9288970000 
 H        3.0108190000    -2.4206220000    -2.4370770000 
 H        5.0844140000    -2.6445630000     0.4028550000 
 H        6.5199160000    -2.1889670000    -0.4077610000 
 H        4.9861260000     0.4105970000    -2.0578250000 
*
