! RI PBE def2-SVP def2-SVP/J NBO PAL2
% maxcore 2000
% output
    # printlevel mini
    print[ P_Basis ] 0
    print[ P_SCFInfo ] 1
    print[ P_SCFIterInfo ] 1
    print[ P_OrbEn ] 0
    print[ P_Cartesian ] 0
end
*xyz 0 1
 C        1.6404390000     1.3722780000    -0.0054910000 
 C        2.3070870000     0.0253280000    -0.2674040000 
 C        3.0858430000    -0.0131560000    -1.5487100000 
 C        2.3239320000    -0.0497540000    -2.8454320000 
 C        2.2517230000    -1.4600560000    -3.4305860000 
 N        4.3574670000    -0.0419590000    -1.4562110000 
 N        5.1091570000    -0.1356730000    -2.5946110000 
 H        1.0626090000     1.3468600000     0.9213150000 
 H        0.9559360000     1.6522230000    -0.8107860000 
 H        2.3902250000     2.1615360000     0.0848510000 
 H        1.5389370000    -0.7585060000    -0.2913150000 
 H        2.9916800000    -0.2166670000     0.5478110000 
 H        2.7761650000     0.6308830000    -3.5786070000 
 H        1.3129460000     0.3302130000    -2.6777210000 
 H        3.2501270000    -1.8646850000    -3.6052690000 
 H        1.7075440000    -1.4639360000    -4.3778200000 
 H        1.7355820000    -2.1357820000    -2.7448500000 
 H        6.0364740000     0.2144600000    -2.4107090000 
 H        4.7104170000     0.3025820000    -3.4200460000 
*
