! RI PBE def2-SVP def2-SVP/J NBO PAL2
% maxcore 2000
% output
    # printlevel mini
    print[ P_Basis ] 0
    print[ P_SCFInfo ] 1
    print[ P_SCFIterInfo ] 1
    print[ P_OrbEn ] 0
    print[ P_Cartesian ] 0
end
*xyz 0 1
 C        0.9257520000     0.0181210000     0.1655670000 
 C        2.3951630000    -0.1858790000    -0.1942930000 
 C        2.9197120000     0.8456560000    -1.0721120000 
 C        3.3477200000     1.7078090000    -1.7964090000 
 C        3.9013370000     2.7074630000    -2.6730800000 
 N        3.0431140000     3.7226190000    -3.0036470000 
 N        5.1033190000     2.7062200000    -3.1042760000 
 H        0.5835100000    -0.7796660000     0.8274300000 
 H        0.3018330000     0.0120890000    -0.7296810000 
 H        0.7791730000     0.9725540000     0.6736520000 
 H        2.5316640000    -1.1599080000    -0.6765810000 
 H        3.0036690000    -0.2112650000     0.7162550000 
 H        2.0568640000     3.5438270000    -2.9451920000 
 H        3.3538570000     4.3164400000    -3.7553380000 
 H        5.6140230000     1.9193100000    -2.7190060000 
*
