! RI PBE def2-SVP def2-SVP/J NBO PAL2
% maxcore 2000
% output
    # printlevel mini
    print[ P_Basis ] 0
    print[ P_SCFInfo ] 1
    print[ P_SCFIterInfo ] 1
    print[ P_OrbEn ] 0
    print[ P_Cartesian ] 0
end
*xyz 0 1
 C        1.5942580000     0.5102070000     0.2670880000 
 C        3.0961340000     0.3133680000     0.1514110000 
 C        3.4624740000    -0.9486700000    -0.6268600000 
 C        4.9371830000    -1.1434520000    -0.7942830000 
 C        5.7059610000    -0.1936940000    -1.6632570000 
 N        5.4787060000    -2.1254380000    -0.1874590000 
 N        6.8189670000    -2.3354560000    -0.3703690000 
 H        1.3509900000     1.4120770000     0.8335250000 
 H        1.1244200000    -0.3376090000     0.7731610000 
 H        1.1310570000     0.6017150000    -0.7195560000 
 H        3.5423350000     0.2524540000     1.1496610000 
 H        3.5434330000     1.1897420000    -0.3312590000 
 H        2.9901310000    -0.9017000000    -1.6178370000 
 H        3.0614750000    -1.8280930000    -0.1170540000 
 H        5.0434110000     0.5000180000    -2.1804500000 
 H        6.2845690000    -0.7463500000    -2.4111950000 
 H        6.4192560000     0.4060570000    -1.0838520000 
 H        7.1706620000    -2.9145520000     0.3759890000 
 H        7.3798990000    -1.4958030000    -0.4748940000 
*
