! RI PBE def2-SVP def2-SVP/J NBO PAL2
% maxcore 2000
% output
    # printlevel mini
    print[ P_Basis ] 0
    print[ P_SCFInfo ] 1
    print[ P_SCFIterInfo ] 1
    print[ P_OrbEn ] 0
    print[ P_Cartesian ] 0
end
*xyz 0 1
 C        3.3041100000    -2.0580470000     0.3985750000 
 C        2.6402270000    -0.6902110000     0.4068820000 
 C        3.5720600000     0.4573670000     0.7785950000 
 C        4.6934650000     0.6902480000    -0.2344220000 
 C        5.5339090000     1.9014160000     0.0847930000 
 N        6.3965360000     1.7377420000     1.1377580000 
 N        5.5161810000     3.0121450000    -0.5395780000 
 H        2.5777620000    -2.8461760000     0.1883630000 
 H        3.7599640000    -2.2795460000     1.3683430000 
 H        4.0876800000    -2.1287980000    -0.3594020000 
 H        1.8052440000    -0.7011290000     1.1148220000 
 H        2.1997170000    -0.4891540000    -0.5766040000 
 H        3.9965550000     0.2621510000     1.7708930000 
 H        2.9907810000     1.3801620000     0.8719480000 
 H        4.2585700000     0.8290020000    -1.2277510000 
 H        5.3430060000    -0.1892640000    -0.2876680000 
 H        6.1929230000     1.0308940000     1.8210210000 
 H        6.8149820000     2.5837460000     1.4882730000 
 H        4.8768070000     2.9651520000    -1.3263400000 
*
