! RI PBE def2-SVP def2-SVP/J NBO PAL2
% maxcore 2000
% output
    # printlevel mini
    print[ P_Basis ] 0
    print[ P_SCFInfo ] 1
    print[ P_SCFIterInfo ] 1
    print[ P_OrbEn ] 0
    print[ P_Cartesian ] 0
end
*xyz 0 1
 C        0.7814020000     0.4583860000     0.0419410000 
 C        2.2764680000     0.2962490000    -0.1747130000 
 C        2.8856190000    -0.7929530000     0.6934330000 
 C        4.3772370000    -0.9578250000     0.4773410000 
 N        4.9139320000    -2.0296220000     1.2917060000 
 C        6.3328610000    -1.9720440000     1.5629020000 
 C        5.3484920000    -1.6546750000     2.6208410000 
 H        0.3659120000     1.2428800000    -0.5948060000 
 H        0.5598480000     0.7210160000     1.0803020000 
 H        0.2482460000    -0.4696530000    -0.1826220000 
 H        2.7810160000     1.2485100000     0.0271190000 
 H        2.4711010000     0.0692820000    -1.2295270000 
 H        2.3950450000    -1.7511610000     0.4917060000 
 H        2.6976840000    -0.5681860000     1.7503170000 
 H        4.8913110000    -0.0004980000     0.6819520000 
 H        4.5740250000    -1.2054540000    -0.5718550000 
 H        6.8941050000    -1.1389950000     1.1448740000 
 H        6.8560680000    -2.9223020000     1.5650990000 
 H        5.2523790000    -0.6089650000     2.9068280000 
 H        5.1399590000    -2.3675990000     3.4111720000 
*
