! RI PBE def2-SVP def2-SVP/J NBO PAL2
% maxcore 2000
% output
    # printlevel mini
    print[ P_Basis ] 0
    print[ P_SCFInfo ] 1
    print[ P_SCFIterInfo ] 1
    print[ P_OrbEn ] 0
    print[ P_Cartesian ] 0
end
*xyz 0 1
 C        2.2672110000     2.1597410000     0.4730770000 
 C        3.2903310000     1.0770110000     0.4393040000 
 C        3.2118940000    -0.0711070000     1.1005690000 
 C        4.2372310000    -1.1528510000     1.0398790000 
 N        4.7018300000    -1.5107020000     2.3700510000 
 C        6.0016360000    -2.1424190000     2.4314370000 
 C        5.8190180000    -0.7407450000     2.8714280000 
 H        1.8673810000     2.3563420000    -0.5269730000 
 H        2.7005830000     3.1008510000     0.8264060000 
 H        1.4333060000     1.9005920000     1.1280700000 
 H        4.1632860000     1.2555630000    -0.1883370000 
 H        2.3546870000    -0.2674900000     1.7420850000 
 H        5.0676370000    -0.8409270000     0.3833020000 
 H        3.7990040000    -2.0569990000     0.5997570000 
 H        6.5307420000    -2.3009820000     1.4943130000 
 H        6.1100820000    -2.9391720000     3.1595120000 
 H        6.2219620000     0.0379960000     2.2279150000 
 H        5.7922690000    -0.4946830000     3.9272930000 
*
