! RI PBE def2-SVP def2-SVP/J NBO PAL2
% maxcore 2000
% output
    # printlevel mini
    print[ P_Basis ] 0
    print[ P_SCFInfo ] 1
    print[ P_SCFIterInfo ] 1
    print[ P_OrbEn ] 0
    print[ P_Cartesian ] 0
end
*xyz 0 1
 C        1.0862620000    -0.7025660000    -0.6947350000 
 C        2.5753930000    -0.6397140000    -0.5640060000 
 C        3.3958500000    -0.8081810000    -1.5941710000 
 C        3.0682070000    -0.3613800000     0.8264130000 
 N        4.5046610000    -0.3977420000     0.9619500000 
 C        5.0003290000    -0.6034430000     2.3049240000 
 C        5.0740450000    -1.6854560000     1.2991060000 
 H        0.7848770000    -0.8765990000    -1.7280930000 
 H        0.6219540000     0.2298230000    -0.3554040000 
 H        0.6685520000    -1.5038190000    -0.0757440000 
 H        3.0092390000    -1.0033910000    -2.5884280000 
 H        4.4694690000    -0.7422640000    -1.4706650000 
 H        2.5756260000    -1.0704640000     1.5200070000 
 H        2.7235580000     0.6367450000     1.1276700000 
 H        4.2691130000    -0.7183460000     3.1022400000 
 H        5.8875220000    -0.0407550000     2.5743970000 
 H        4.3890520000    -2.5218680000     1.4172070000 
 H        6.0167810000    -1.9289670000     0.8215310000 
*
