! RI PBE def2-SVP def2-SVP/J NBO PAL2
% maxcore 2000
% output
    # printlevel mini
    print[ P_Basis ] 0
    print[ P_SCFInfo ] 1
    print[ P_SCFIterInfo ] 1
    print[ P_OrbEn ] 0
    print[ P_Cartesian ] 0
end
*xyz 0 1
 C        0.8637060000    -0.1904490000     0.1003970000 
 C        2.3596460000     0.0040930000    -0.0975180000 
 C        3.1076690000    -1.2725840000     0.1271670000 
 C        3.9668820000    -1.4806610000     1.1137140000 
 N        2.6006970000     0.4602010000    -1.4611150000 
 C        2.4943810000     1.8873040000    -1.6783060000 
 C        3.8139980000     1.2172280000    -1.6738280000 
 H        0.6489550000    -0.5107780000     1.1212960000 
 H        0.4863850000    -0.9474570000    -0.5906800000 
 H        0.3274050000     0.7419480000    -0.0923880000 
 H        2.7227650000     0.7513690000     0.6313360000 
 H        2.8978300000    -2.0625410000    -0.5913460000 
 H        4.1964970000    -0.7043940000     1.8377170000 
 H        4.4689940000    -2.4330160000     1.2394310000 
 H        2.2574800000     2.5134890000    -0.8205970000 
 H        2.0337950000     2.1951100000    -2.6108430000 
 H        4.4560990000     1.3918730000    -0.8136990000 
 H        4.3371350000     1.0250550000    -2.6041390000 
*
