! RI PBE def2-SVP def2-SVP/J NBO PAL2
% maxcore 2000
% output
    # printlevel mini
    print[ P_Basis ] 0
    print[ P_SCFInfo ] 1
    print[ P_SCFIterInfo ] 1
    print[ P_OrbEn ] 0
    print[ P_Cartesian ] 0
end
*xyz 0 1
 C        0.9431120000     0.0314310000    -0.2679130000 
 C        2.3623670000    -0.0980340000     0.2655440000 
 C        2.4102270000     0.1209300000     1.7702780000 
 C        2.9466510000    -1.4507840000    -0.1195360000 
 N        4.3440840000    -1.5649810000     0.2462800000 
 C        5.1053000000    -2.5651250000    -0.4668960000 
 C        5.2941450000    -1.1257410000    -0.7537620000 
 H        0.5158000000     1.0043880000    -0.0137500000 
 H        0.2934750000    -0.7363200000     0.1647730000 
 H        0.9082350000    -0.0765760000    -1.3554160000 
 H        2.9812300000     0.6720240000    -0.2140620000 
 H        1.7696850000    -0.6038000000     2.2839510000 
 H        2.0558470000     1.1211790000     2.0324290000 
 H        3.4249540000    -0.0004300000     2.1516950000 
 H        2.8035450000    -1.6167650000    -1.2027940000 
 H        2.3969700000    -2.2442470000     0.4015320000 
 H        4.5848250000    -3.1533870000    -1.2197810000 
 H        5.8389990000    -3.1114590000     0.1160740000 
 H        4.8973980000    -0.7550560000    -1.6968560000 
 H        6.1687820000    -0.6008360000    -0.3852710000 
*
