! RI PBE def2-SVP def2-SVP/J NBO PAL2
% maxcore 2000
% output
    # printlevel mini
    print[ P_Basis ] 0
    print[ P_SCFInfo ] 1
    print[ P_SCFIterInfo ] 1
    print[ P_OrbEn ] 0
    print[ P_Cartesian ] 0
end
*xyz 0 1
 C        1.3347200000    -0.8834480000    -0.2635410000 
 C        2.6023040000    -0.2649020000     0.3279950000 
 C        3.3062140000    -1.2952780000     1.2031140000 
 C        2.2283110000     0.9588550000     1.1558610000 
 N        3.6020640000     0.1927860000    -0.6473600000 
 C        3.8503550000    -0.5357400000    -1.8665430000 
 C        3.2108730000     0.8024670000    -1.8939650000 
 H        1.5480700000    -1.7773850000    -0.8539110000 
 H        0.7831730000    -0.1771860000    -0.8881840000 
 H        0.6686020000    -1.1844550000     0.5478890000 
 H        3.6023660000    -2.1662410000     0.6123070000 
 H        2.6495540000    -1.6377720000     2.0063800000 
 H        4.2058600000    -0.8628250000     1.6447910000 
 H        1.5369080000     0.6898380000     1.9579330000 
 H        1.7456010000     1.7151880000     0.5311350000 
 H        3.1225120000     1.4030930000     1.5969200000 
 H        3.2163580000    -1.3815890000    -2.1182650000 
 H        4.8940360000    -0.6552460000    -2.1392390000 
 H        2.1586750000     0.8316770000    -2.1637470000 
 H        3.7781340000     1.6800430000    -2.1871590000 
*
