! RI PBE def2-SVP def2-SVP/J NBO PAL2
% maxcore 2000
% output
    # printlevel mini
    print[ P_Basis ] 0
    print[ P_SCFInfo ] 1
    print[ P_SCFIterInfo ] 1
    print[ P_OrbEn ] 0
    print[ P_Cartesian ] 0
end
*xyz 0 1
 C        2.2626560000     0.3692520000     2.2727010000 
 C        2.1815520000    -0.0179150000     0.8045200000 
 C        2.9721310000     0.8789860000    -0.1454800000 
 C        2.5279290000     2.3298900000    -0.1086790000 
 N        4.3906860000     0.8044680000     0.1756380000 
 C        5.1143820000    -0.3144000000    -0.3862820000 
 C        5.3054360000     1.0544820000    -0.9149050000 
 H        1.7552740000    -0.3718330000     2.8946250000 
 H        1.7890830000     1.3345010000     2.4660610000 
 H        3.3018660000     0.4353780000     2.6001150000 
 H        1.1366490000    -0.0241470000     0.4757860000 
 H        2.5456930000    -1.0437950000     0.6804430000 
 H        2.8047060000     0.4948390000    -1.1698230000 
 H        2.7206080000     2.7705890000     0.8710470000 
 H        1.4601360000     2.4135650000    -0.3249010000 
 H        3.0707430000     2.9187500000    -0.8517700000 
 H        4.5620430000    -1.0102280000    -1.0150300000 
 H        5.8636190000    -0.7698750000     0.2524030000 
 H        4.8792120000     1.2649920000    -1.8940390000 
 H        6.1982870000     1.6210100000    -0.6728090000 
*
