! RI PBE def2-SVP def2-SVP/J NBO PAL2
% maxcore 2000
% output
    # printlevel mini
    print[ P_Basis ] 0
    print[ P_SCFInfo ] 1
    print[ P_SCFIterInfo ] 1
    print[ P_OrbEn ] 0
    print[ P_Cartesian ] 0
end
*xyz 0 1
 C        0.9871430000    -0.2180070000     0.0963520000 
 C        2.3045030000    -0.0183820000     0.1270480000 
 C        2.9936340000     0.8636210000    -0.8930350000 
 C        3.6304100000     2.0313610000    -0.2983780000 
 N        4.1275190000     2.9592840000     0.1621150000 
 C        3.1438020000    -0.6323260000     1.0973470000 
 C        3.8930320000    -1.1302570000     1.8946690000 
 H        0.3660840000     0.2628140000    -0.6500920000 
 H        0.5033100000    -0.8640090000     0.8173550000 
 H        2.2699350000     1.2040620000    -1.6370300000 
 H        3.7643030000     0.2906230000    -1.4186000000 
 H        4.5475460000    -1.5692950000     2.6104590000 
*
