! RI PBE def2-SVP def2-SVP/J NBO PAL2
% maxcore 2000
% output
    # printlevel mini
    print[ P_Basis ] 0
    print[ P_SCFInfo ] 1
    print[ P_SCFIterInfo ] 1
    print[ P_OrbEn ] 0
    print[ P_Cartesian ] 0
end
*xyz 0 1
 C        1.0538180000     0.3339830000    -0.0668070000 
 C        2.5242630000     0.1866900000     0.1051660000 
 C        3.1791350000    -0.6632460000     0.9102120000 
 C        2.5145570000    -1.6599070000     1.8258640000 
 N        2.7079990000    -3.0135710000     1.3298320000 
 C        4.6045870000    -0.6610260000     0.9240190000 
 C        5.8069550000    -0.6669380000     0.9707770000 
 H        0.7844660000     0.2281580000    -1.1226460000 
 H        0.7303260000     1.3366030000     0.2328170000 
 H        0.4748740000    -0.3911750000     0.5039430000 
 H        3.1336900000     0.8524000000    -0.5006550000 
 H        1.4637480000    -1.3772970000     1.9691160000 
 H        2.9956820000    -1.5933130000     2.8061800000 
 H        2.2239170000    -3.1429880000     0.4503040000 
 H        2.3440290000    -3.6924700000     1.9857840000 
 H        6.8703520000    -0.6753520000     1.0023550000 
*
