! RI PBE def2-SVP def2-SVP/J NBO PAL2
% maxcore 2000
% output
    # printlevel mini
    print[ P_Basis ] 0
    print[ P_SCFInfo ] 1
    print[ P_SCFIterInfo ] 1
    print[ P_OrbEn ] 0
    print[ P_Cartesian ] 0
end
*xyz 0 1
 C        0.7654820000     0.1693370000     0.1149030000 
 C        2.2503550000     0.2708480000     0.1719320000 
 C        3.0241480000     0.7406860000    -0.7985750000 
 C        4.5281070000     0.7906730000    -0.7262790000 
 N        5.1986370000    -0.0966300000    -1.6790350000 
 C        5.0028820000     2.1592200000    -0.9202520000 
 C        5.3620750000     3.2906530000    -1.0967830000 
 H        0.4348400000    -0.8645770000     0.2565050000 
 H        0.3760130000     0.5252380000    -0.8406240000 
 H        0.3017120000     0.7576790000     0.9130090000 
 H        2.7243290000    -0.0663540000     1.0936360000 
 H        2.5842500000     1.0957440000    -1.7294820000 
 H        4.8284840000     0.4741320000     0.2803420000 
 H        5.0734880000     0.2540730000    -2.6217110000 
 H        4.7631090000    -1.0110460000    -1.6378100000 
 H        5.6899880000     4.2922230000    -1.2449650000 
*
