! RI PBE def2-SVP def2-SVP/J NBO PAL2
% maxcore 2000
% output
    # printlevel mini
    print[ P_Basis ] 0
    print[ P_SCFInfo ] 1
    print[ P_SCFIterInfo ] 1
    print[ P_OrbEn ] 0
    print[ P_Cartesian ] 0
end
*xyz 0 1
 C        1.1742540000    -0.8014590000     0.5354010000 
 C        2.4308420000    -0.0342530000     0.3060340000 
 C        2.7134740000     0.6622480000    -0.7879340000 
 C        3.9954250000     1.3889920000    -1.0289420000 
 N        3.7915970000     2.7736880000    -1.4130160000 
 C        3.2418100000     3.5618180000    -0.3352450000 
 C        5.0043440000     3.3644870000    -1.9243720000 
 H        1.3843970000    -1.8647110000     0.6905130000 
 H        0.4905330000    -0.7103070000    -0.3107280000 
 H        0.6561210000    -0.4521470000     1.4342870000 
 H        3.1689060000    -0.0620620000     1.1074040000 
 H        1.9861820000     0.7141120000    -1.5970780000 
 H        4.5268830000     0.9027350000    -1.8561240000 
 H        4.6473540000     1.2989920000    -0.1382430000 
 H        2.3134470000     3.1130970000     0.0214370000 
 H        3.0218350000     4.5710700000    -0.6907550000 
 H        3.9325290000     3.6448350000     0.5250950000 
 H        5.3713030000     2.7877790000    -2.7766900000 
 H        5.8123340000     3.4125190000    -1.1704010000 
 H        4.8051310000     4.3833640000    -2.2648340000 
*
