! RI PBE def2-SVP def2-SVP/J NBO PAL2
% maxcore 2000
% output
    # printlevel mini
    print[ P_Basis ] 0
    print[ P_SCFInfo ] 1
    print[ P_SCFIterInfo ] 1
    print[ P_OrbEn ] 0
    print[ P_Cartesian ] 0
end
*xyz 0 1
 C        0.9154340000     0.2444070000     0.2011970000 
 C        2.3714040000    -0.0477710000     0.0107110000 
 C        2.9016180000    -1.2302410000     0.2984510000 
 C        3.1896200000     1.1176540000    -0.5299770000 
 N        3.2468380000     2.2766240000     0.3641690000 
 C        4.5491090000     0.7406400000    -0.9062000000 
 C        5.6696450000     0.4403460000    -1.2118770000 
 H        0.3788200000    -0.6403400000     0.5441460000 
 H        0.4579290000     0.5803710000    -0.7358360000 
 H        0.7516210000     1.0376090000     0.9373890000 
 H        2.2911930000    -2.0329070000     0.6978810000 
 H        3.9540550000    -1.4316990000     0.1385340000 
 H        2.6910420000     1.4643570000    -1.4460690000 
 H        3.6469420000     1.9982330000     1.2529070000 
 H        2.3135920000     2.6247330000     0.5443270000 
 H        6.6645480000     0.1821840000    -1.4880510000 
*
