! RI PBE def2-SVP def2-SVP/J NBO PAL2
% maxcore 2000
% output
    # printlevel mini
    print[ P_Basis ] 0
    print[ P_SCFInfo ] 1
    print[ P_SCFIterInfo ] 1
    print[ P_OrbEn ] 0
    print[ P_Cartesian ] 0
end
*xyz 0 1
 C        1.0628150000     0.0430230000    -0.0326850000 
 C        2.5552960000     0.0767320000     0.0408940000 
 C        3.2439020000     0.5587480000     1.0932210000 
 C        2.6134780000     1.0870310000     2.2465180000 
 N        2.1215050000     1.5215710000     3.1949950000 
 C        3.2638670000    -0.4358930000    -1.0781570000 
 C        3.8221260000    -0.8795740000    -2.0467030000 
 H        0.6100270000     0.4558410000     0.8680990000 
 H        0.7188910000    -0.9854570000    -0.1683320000 
 H        0.7188890000     0.6116900000    -0.9003130000 
 H        4.3273410000     0.5573950000     1.0903220000 
 H        4.3276520000    -1.2698980000    -2.8987590000 
*
