! RI PBE def2-SVP def2-SVP/J NBO PAL2
% maxcore 2000
% output
    # printlevel mini
    print[ P_Basis ] 0
    print[ P_SCFInfo ] 1
    print[ P_SCFIterInfo ] 1
    print[ P_OrbEn ] 0
    print[ P_Cartesian ] 0
end
*xyz 0 1
 C        0.9154040000     0.1645850000     0.1341790000 
 C        2.3950430000    -0.0146120000    -0.0522210000 
 C        3.0725550000    -1.1646480000     0.0751260000 
 C        2.5309740000    -2.5091170000     0.4203320000 
 N        3.0571490000    -3.5042380000    -0.5058720000 
 C        3.1073890000     1.1774450000    -0.3805250000 
 C        3.6635740000     2.2087670000    -0.6558310000 
 H        0.3970950000    -0.7833680000     0.2696950000 
 H        0.4860410000     0.6792900000    -0.7287140000 
 H        0.7167780000     0.7906610000     1.0085100000 
 H        4.1453110000    -1.1446350000    -0.0952930000 
 H        1.4351580000    -2.4892800000     0.4820600000 
 H        2.8919290000    -2.7761070000     1.4219830000 
 H        2.7020810000    -3.3375190000    -1.4394250000 
 H        2.7671850000    -4.4347160000    -0.2334190000 
 H        4.1707330000     3.1117030000    -0.9002820000 
*
