! RI PBE def2-SVP def2-SVP/J NBO PAL2
% maxcore 2000
% output
    # printlevel mini
    print[ P_Basis ] 0
    print[ P_SCFInfo ] 1
    print[ P_SCFIterInfo ] 1
    print[ P_OrbEn ] 0
    print[ P_Cartesian ] 0
end
*xyz 0 1
 C        1.1798870000     0.2426510000    -0.1050780000 
 C        2.6272760000    -0.2029090000     0.0844900000 
 C        2.7143950000    -1.0089110000     1.3472860000 
 C        3.3040530000    -0.6128810000     2.4653000000 
 N        3.1045420000    -0.9945420000    -1.0461240000 
 C        2.9140010000    -0.3475700000    -2.3244060000 
 C        4.4924920000    -1.3701910000    -0.8851550000 
 H        0.8224150000     0.7165570000     0.8100130000 
 H        0.5424600000    -0.6192470000    -0.3195810000 
 H        1.0743970000     0.9636660000    -0.9169090000 
 H        3.2534350000     0.7033230000     0.2104650000 
 H        2.2109060000    -1.9736840000     1.3074380000 
 H        3.8202210000     0.3406800000     2.5260670000 
 H        3.2918330000    -1.2232100000     3.3610110000 
 H        1.8558090000    -0.2053570000    -2.5423070000 
 H        3.3275120000    -0.9842240000    -3.1093090000 
 H        3.4179020000     0.6350670000    -2.3901810000 
 H        4.6370940000    -1.9031620000     0.0548290000 
 H        5.1726700000    -0.4981190000    -0.8868730000 
 H        4.7891110000    -2.0304160000    -1.7029880000 
*
