! RI PBE def2-SVP def2-SVP/J NBO PAL2
% maxcore 2000
% output
    # printlevel mini
    print[ P_Basis ] 0
    print[ P_SCFInfo ] 1
    print[ P_SCFIterInfo ] 1
    print[ P_OrbEn ] 0
    print[ P_Cartesian ] 0
end
*xyz 0 1
 C        1.1173370000    -0.1863580000     0.0942000000 
 C        2.6443830000    -0.1054760000     0.0200800000 
 C        3.2230210000    -1.4992530000    -0.1846610000 
 C        3.0542710000     0.8080090000    -1.1539350000 
 N        2.5872800000     0.3114670000    -2.4381880000 
 C        3.1498270000     0.5486690000     1.2760930000 
 C        4.0188100000     0.0601740000     2.1503220000 
 H        0.7158980000    -0.5376550000    -0.8577860000 
 H        0.6831960000     0.7957310000     0.3034220000 
 H        0.8048410000    -0.8680850000     0.8887800000 
 H        2.7971230000    -1.9564270000    -1.0805160000 
 H        2.9840500000    -2.1507470000     0.6592600000 
 H        4.3113360000    -1.4723910000    -0.2934730000 
 H        4.1449120000     0.9489100000    -1.1084300000 
 H        2.6040640000     1.7926000000    -0.9906580000 
 H        3.1934560000    -0.4192330000    -2.7872620000 
 H        2.5892070000     1.0501100000    -3.1282670000 
 H        2.7334620000     1.5393380000     1.4608970000 
 H        4.4714120000    -0.9182050000     2.0338180000 
 H        4.3078040000     0.6285140000     3.0270240000 
*
