! RI PBE def2-SVP def2-SVP/J NBO PAL2
% maxcore 2000
% output
    # printlevel mini
    print[ P_Basis ] 0
    print[ P_SCFInfo ] 1
    print[ P_SCFIterInfo ] 1
    print[ P_OrbEn ] 0
    print[ P_Cartesian ] 0
end
*xyz 0 1
 C        1.0513990000     0.0397940000    -0.0536060000 
 C        2.5819900000     0.0009730000    -0.0718650000 
 C        3.0759030000    -1.4363840000     0.1148950000 
 C        3.0757370000     0.5683610000    -1.4164540000 
 N        4.5226150000     0.5988230000    -1.4914970000 
 C        3.0985490000     0.8435030000     1.0085710000 
 C        3.5282340000     1.5448940000     1.8848740000 
 H        0.6549370000    -0.5740380000    -0.8670120000 
 H        0.6810940000     1.0596540000    -0.1755920000 
 H        0.6671220000    -0.3514870000     0.8898610000 
 H        2.6488550000    -2.0745130000    -0.6637590000 
 H        2.7690790000    -1.8258650000     1.0873270000 
 H        4.1617270000    -1.4802390000     0.0391890000 
 H        2.5990420000     1.5502500000    -1.5610140000 
 H        2.7024900000    -0.0919110000    -2.2063220000 
 H        4.8903720000     1.2645920000    -0.8214620000 
 H        4.8272930000     0.8919160000    -2.4100830000 
 H        3.9019610000     2.1579670000     2.6704600000 
*
