! RI PBE def2-SVP def2-SVP/J NBO PAL2
% maxcore 2000
% output
    # printlevel mini
    print[ P_Basis ] 0
    print[ P_SCFInfo ] 1
    print[ P_SCFIterInfo ] 1
    print[ P_OrbEn ] 0
    print[ P_Cartesian ] 0
end
*xyz 0 1
 C        1.0112790000    -0.2002620000    -0.1549360000 
 C        2.5220440000    -0.0310750000    -0.1215720000 
 C        2.9490680000     1.2668920000    -0.7869210000 
 C        3.0676130000    -0.1695040000     1.3212730000 
 N        4.5189910000    -0.2269640000     1.4426000000 
 C        2.5533000000     0.8859700000     2.1914080000 
 C        2.1273450000     1.7676020000     2.8859040000 
 H        0.6424900000    -0.1954970000    -1.1833400000 
 H        0.5188620000     0.6137550000     0.3833120000 
 H        0.7030210000    -1.1421200000     0.3073020000 
 H        2.9716680000    -0.8676740000    -0.6737910000 
 H        2.5330510000     2.1280870000    -0.2571760000 
 H        2.5945040000     1.3038770000    -1.8196110000 
 H        4.0361930000     1.3764930000    -0.8116250000 
 H        2.6796640000    -1.1200690000     1.7115190000 
 H        4.9275250000     0.6765110000     1.2393090000 
 H        4.8937140000    -0.8919480000     0.7760810000 
 H        1.7535690000     2.5408260000     3.5145640000 
*
