! RI PBE def2-SVP def2-SVP/J NBO PAL2
% maxcore 2000
% output
    # printlevel mini
    print[ P_Basis ] 0
    print[ P_SCFInfo ] 1
    print[ P_SCFIterInfo ] 1
    print[ P_OrbEn ] 0
    print[ P_Cartesian ] 0
end
*xyz 0 1
 C        2.2644020000    -1.7859200000    -0.3819650000 
 C        3.4230200000    -0.8464210000    -0.6850940000 
 C        3.0282900000     0.2071820000    -1.7082230000 
 C        3.9159350000    -0.2086520000     0.6106700000 
 N        5.0484330000     0.6824980000     0.4566370000 
 C        5.2361190000     1.5013960000     1.6300780000 
 C        6.2651730000    -0.0174300000     0.1201060000 
 H        1.9124270000    -2.2811510000    -1.2900690000 
 H        1.4184250000    -1.2360590000     0.0431880000 
 H        2.5515270000    -2.5614970000     0.3332000000 
 H        4.2349930000    -1.4510970000    -1.1070720000 
 H        2.1852610000     0.8014030000    -1.3399140000 
 H        2.7226690000    -0.2546880000    -2.6506160000 
 H        3.8535220000     0.8928120000    -1.9061650000 
 H        4.1376520000    -1.0085460000     1.3456110000 
 H        3.0909590000     0.3781260000     1.0317530000 
 H        4.3303730000     2.0774540000     1.8325100000 
 H        6.0553870000     2.2052590000     1.4644990000 
 H        5.4750630000     0.9120200000     2.5353930000 
 H        6.1549920000    -0.5548400000    -0.8228410000 
 H        6.5652320000    -0.7467420000     0.8963180000 
 H        7.0798550000     0.6999720000    -0.0010230000 
*
