! RI PBE def2-SVP def2-SVP/J NBO PAL2
% maxcore 2000
% output
    # printlevel mini
    print[ P_Basis ] 0
    print[ P_SCFInfo ] 1
    print[ P_SCFIterInfo ] 1
    print[ P_OrbEn ] 0
    print[ P_Cartesian ] 0
end
*xyz 0 1
 C        1.0458640000    -0.0106130000    -0.0903160000 
 C        2.5718160000     0.0469650000    -0.0438420000 
 C        3.0393060000     1.4985720000     0.1755800000 
 C        4.4794740000     1.6644930000     0.0701680000 
 N        5.6163290000     1.7980850000    -0.0323410000 
 C        3.1047120000    -0.8346770000     0.9860340000 
 C        3.5302390000    -1.5512640000     1.8490480000 
 H        0.6641800000     0.6159950000    -0.8996570000 
 H        0.6174780000     0.3378160000     0.8518970000 
 H        0.7078200000    -1.0335760000    -0.2563860000 
 H        2.9659380000    -0.2868350000    -1.0104010000 
 H        2.7172450000     1.8442680000     1.1618470000 
 H        2.5663840000     2.1455180000    -0.5690920000 
 H        3.9196160000    -2.1881460000     2.6079600000 
*
