! RI PBE def2-SVP def2-SVP/J NBO PAL2
% maxcore 2000
% output
    # printlevel mini
    print[ P_Basis ] 0
    print[ P_SCFInfo ] 1
    print[ P_SCFIterInfo ] 1
    print[ P_OrbEn ] 0
    print[ P_Cartesian ] 0
end
*xyz 0 1
 C        1.1710470000    -0.2171850000    -0.4681820000 
 C        2.6159960000    -0.1957710000     0.0261580000 
 C        2.7266840000     0.6186010000     1.3168330000 
 C        4.1494270000     0.8274150000     1.7992520000 
 N        4.1596080000     1.5944060000     3.0359360000 
 C        3.1168020000    -1.5933130000     0.2197430000 
 C        4.1094220000    -2.1590050000    -0.4524620000 
 H        0.7999890000     0.7984010000    -0.6295810000 
 H        0.5171210000    -0.6975850000     0.2658980000 
 H        1.0825480000    -0.7683810000    -1.4065800000 
 H        3.2379670000     0.2830680000    -0.7409190000 
 H        2.1521560000     0.1317210000     2.1131790000 
 H        2.2563950000     1.5966520000     1.1529320000 
 H        4.7369160000     1.2872960000     0.9868430000 
 H        4.6099240000    -0.1444130000     1.9995000000 
 H        3.8034330000     2.5291730000     2.8744570000 
 H        5.1037820000     1.6972480000     3.3855930000 
 H        2.5932300000    -2.1749510000     0.9795230000 
 H        4.6569430000    -1.6152790000    -1.2167570000 
 H        4.4113100000    -3.1835970000    -0.2674530000 
*
