! RI PBE def2-SVP def2-SVP/J NBO PAL2
% maxcore 2000
% output
    # printlevel mini
    print[ P_Basis ] 0
    print[ P_SCFInfo ] 1
    print[ P_SCFIterInfo ] 1
    print[ P_OrbEn ] 0
    print[ P_Cartesian ] 0
end
*xyz 0 1
 C        1.3997120000     0.4410290000    -0.8793610000 
 C        2.5008620000    -0.0969180000     0.0369220000 
 C        2.0679530000    -0.1811410000     1.5081480000 
 C        0.8946080000    -1.1044490000     1.7791530000 
 N        0.6202680000    -1.1442580000     3.2087360000 
 C        3.0095400000    -1.3752190000    -0.4510400000 
 C        3.4278280000    -2.4253820000    -0.8580520000 
 H        1.0298480000     1.3969590000    -0.5006570000 
 H        0.5605650000    -0.2533690000    -0.9421160000 
 H        1.7801780000     0.5938620000    -1.8903940000 
 H        3.3385750000     0.6102410000    -0.0031060000 
 H        1.8154530000     0.8244180000     1.8584350000 
 H        2.9262760000    -0.5156890000     2.1012340000 
 H        1.1042620000    -2.0902320000     1.3373280000 
 H       -0.0002410000    -0.7181680000     1.2823850000 
 H        1.3962370000    -1.5712070000     3.7011880000 
 H       -0.1942130000    -1.7141440000     3.3992860000 
 H        3.8006890000    -3.3540340000    -1.2199900000 
*
