! RI PBE def2-SVP def2-SVP/J NBO PAL2
% maxcore 2000
% output
    # printlevel mini
    print[ P_Basis ] 0
    print[ P_SCFInfo ] 1
    print[ P_SCFIterInfo ] 1
    print[ P_OrbEn ] 0
    print[ P_Cartesian ] 0
end
*xyz 0 1
 C        0.9547000000     0.1151400000     0.0643680000 
 C        2.4049440000     0.0804670000     0.0804880000 
 C        3.6064280000     0.0464900000     0.0992410000 
 C        5.0627290000     0.0101330000     0.0914560000 
 N        5.6489940000    -0.0395440000     1.4193820000 
 C        7.0749070000    -0.2416220000     1.3335370000 
 C        5.3278660000     1.1324640000     2.1998590000 
 H        0.5864030000     0.7998490000    -0.7038260000 
 H        0.5622110000     0.4518560000     1.0273360000 
 H        0.5382870000    -0.8747430000    -0.1386190000 
 H        5.4367470000     0.8811670000    -0.4836280000 
 H        5.3910170000    -0.8814500000    -0.4537360000 
 H        7.2904310000    -1.1665340000     0.7929770000 
 H        7.4938870000    -0.3306210000     2.3380110000 
 H        7.5985220000     0.5864150000     0.8193900000 
 H        4.2450290000     1.2435660000     2.2709250000 
 H        5.7427810000     2.0613040000     1.7651950000 
 H        5.7310380000     1.0208660000     3.2086520000 
*
