! RI PBE def2-SVP def2-SVP/J NBO PAL2
% maxcore 2000
% output
    # printlevel mini
    print[ P_Basis ] 0
    print[ P_SCFInfo ] 1
    print[ P_SCFIterInfo ] 1
    print[ P_OrbEn ] 0
    print[ P_Cartesian ] 0
end
*xyz 0 1
 C        2.9932430000    -0.3295340000     1.3607850000 
 C        2.4732960000    -0.1615230000    -0.0563030000 
 C        2.9574300000     1.0949140000    -0.7928720000 
 C        2.4119320000     1.0683370000    -2.2222150000 
 N        2.4680000000     2.2604810000    -0.0514750000 
 C        4.4870710000     1.2098750000    -0.8032490000 
 C        5.2439940000     0.0548030000    -1.4365120000 
 H        2.4961100000    -1.1661990000     1.8573580000 
 H        2.8141500000     0.5736090000     1.9466220000 
 H        4.0668230000    -0.5327420000     1.3781580000 
 H        1.3767690000    -0.1241860000    -0.0374170000 
 H        2.7261850000    -1.0411120000    -0.6567960000 
 H        1.3179200000     1.0538270000    -2.2091750000 
 H        2.7450710000     0.1890770000    -2.7798340000 
 H        2.7291780000     1.9594620000    -2.7724130000 
 H        1.4553010000     2.3001280000    -0.0970050000 
 H        2.8112060000     3.1126820000    -0.4811720000 
 H        4.8191390000     1.3509150000     0.2289440000 
 H        4.7454880000     2.1375900000    -1.3297970000 
 H        5.0505240000    -0.8896170000    -0.9217670000 
 H        6.3206020000     0.2341140000    -1.3901940000 
 H        4.9831590000    -0.0805120000    -2.4885620000 
*
