! RI PBE def2-SVP def2-SVP/J NBO PAL2
% maxcore 2000
% output
    # printlevel mini
    print[ P_Basis ] 0
    print[ P_SCFInfo ] 1
    print[ P_SCFIterInfo ] 1
    print[ P_OrbEn ] 0
    print[ P_Cartesian ] 0
end
*xyz 0 1
 C        2.8363110000    -0.1671630000    -1.4369290000 
 C        2.4232320000     0.0442220000     0.0080480000 
 C        2.9586620000    -1.0025330000     1.0031230000 
 C        2.4566910000    -0.6386330000     2.4073500000 
 N        2.4993640000    -2.3197370000     0.5790150000 
 C        4.4634350000    -0.9619780000     1.0212480000 
 C        5.2808200000    -1.9104830000     0.5881330000 
 H        2.3863340000     0.5929510000    -2.0799730000 
 H        2.5233610000    -1.1495970000    -1.7932910000 
 H        3.9206310000    -0.1074580000    -1.5506470000 
 H        1.3283150000     0.0407430000     0.0863790000 
 H        2.7448540000     1.0335560000     0.3502620000 
 H        1.3629050000    -0.6299380000     2.4263140000 
 H        2.8072910000     0.3495370000     2.7192010000 
 H        2.8077260000    -1.3683930000     3.1417220000 
 H        1.4861820000    -2.3342210000     0.5525920000 
 H        2.7871710000    -3.0199440000     1.2534700000 
 H        4.8826240000    -0.0503230000     1.4437690000 
 H        4.8991420000    -2.8219260000     0.1423350000 
 H        6.3565620000    -1.7933930000     0.6516690000 
*
