! RI PBE def2-SVP def2-SVP/J NBO PAL2
% maxcore 2000
% output
    # printlevel mini
    print[ P_Basis ] 0
    print[ P_SCFInfo ] 1
    print[ P_SCFIterInfo ] 1
    print[ P_OrbEn ] 0
    print[ P_Cartesian ] 0
end
*xyz 0 1
 C        3.0313100000     0.5584020000     1.1312920000 
 C        2.6303380000     0.4512270000    -0.3294620000 
 C        3.1816140000    -0.7924380000    -1.0316680000 
 C        2.5188410000    -0.9954270000    -2.3978710000 
 N        1.0892390000    -1.2297810000    -2.2626870000 
 C        4.6662670000    -0.7169520000    -1.1938620000 
 C        5.5477350000    -1.5603190000    -0.6751230000 
 H        2.6235640000     1.4642540000     1.5860910000 
 H        4.1172910000     0.5820670000     1.2513070000 
 H        2.6560860000    -0.2951230000     1.7038130000 
 H        2.9749450000     1.3387070000    -0.8754200000 
 H        1.5416760000     0.4331490000    -0.4238250000 
 H        2.9497870000    -1.6717100000    -0.4136150000 
 H        3.0496070000    -1.8010910000    -2.9263820000 
 H        2.6569390000    -0.0850340000    -2.9924520000 
 H        0.9187990000    -2.1456550000    -1.8648230000 
 H        0.6367140000    -1.2133370000    -3.1672820000 
 H        5.0282130000     0.1173500000    -1.7961520000 
 H        5.2339390000    -2.4016000000    -0.0642470000 
 H        6.6130360000    -1.4421090000    -0.8378300000 
*
