! RI PBE def2-SVP def2-SVP/J NBO PAL2
% maxcore 2000
% output
    # printlevel mini
    print[ P_Basis ] 0
    print[ P_SCFInfo ] 1
    print[ P_SCFIterInfo ] 1
    print[ P_OrbEn ] 0
    print[ P_Cartesian ] 0
end
*xyz 0 1
 C        2.9070450000    -1.2349740000     0.2189880000 
 C        2.5892900000     0.2486640000     0.1938380000 
 C        3.1227370000     0.9693140000    -1.0489680000 
 C        2.5840830000     2.4037680000    -1.1557480000 
 N        1.1438170000     2.3968980000    -1.3467740000 
 C        4.5792280000     0.9777750000    -1.0850630000 
 C        5.7802960000     1.0060420000    -1.0960340000 
 H        2.5144350000    -1.7040310000     1.1239700000 
 H        3.9849540000    -1.4117500000     0.1898480000 
 H        2.4616930000    -1.7478720000    -0.6385490000 
 H        3.0094020000     0.7373340000     1.0794700000 
 H        1.5091540000     0.4116160000     0.2189540000 
 H        2.7732920000     0.4203480000    -1.9357480000 
 H        3.1370140000     2.9268740000    -1.9478130000 
 H        2.8063050000     2.9236030000    -0.2191330000 
 H        0.9099170000     2.1459160000    -2.2994770000 
 H        0.7543180000     3.3144350000    -1.1776510000 
 H        6.8441910000     1.0254990000    -1.1098580000 
*
