! RI PBE def2-SVP def2-SVP/J NBO PAL2
% maxcore 2000
% output
    # printlevel mini
    print[ P_Basis ] 0
    print[ P_SCFInfo ] 1
    print[ P_SCFIterInfo ] 1
    print[ P_OrbEn ] 0
    print[ P_Cartesian ] 0
end
*xyz 0 1
 C        1.0560400000     1.4405680000     0.7261530000 
 C        2.4801600000     0.9884010000     0.4483830000 
 C        3.4755240000     1.4995040000     1.4774350000 
 C        4.9168760000     1.0322760000     1.2632270000 
 N        5.5029040000     1.4295910000    -0.0117560000 
 C        5.8167380000     1.5119950000     2.3976640000 
 C        7.2039180000     0.8949890000     2.3821200000 
 H        0.3602250000     1.0638230000    -0.0272080000 
 H        0.9831680000     2.5318900000     0.7290840000 
 H        0.7124560000     1.0868100000     1.7022110000 
 H        2.7743600000     1.3270250000    -0.5512670000 
 H        2.5187410000    -0.1075760000     0.4236990000 
 H        3.1477460000     1.1829210000     2.4755760000 
 H        3.4599440000     2.5984990000     1.4873670000 
 H        4.9203940000    -0.0667550000     1.2745490000 
 H        5.4419250000     2.4364770000    -0.1229660000 
 H        5.0023920000     1.0158940000    -0.7875110000 
 H        5.3225320000     1.2984990000     3.3513800000 
 H        5.8943530000     2.6056760000     2.3361320000 
 H        7.1508270000    -0.1882890000     2.5251360000 
 H        7.8291680000     1.3039300000     3.1793510000 
 H        7.6964100000     1.0789430000     1.4262420000 
*
