! RI PBE def2-SVP def2-SVP/J NBO PAL2
% maxcore 2000
% output
    # printlevel mini
    print[ P_Basis ] 0
    print[ P_SCFInfo ] 1
    print[ P_SCFIterInfo ] 1
    print[ P_OrbEn ] 0
    print[ P_Cartesian ] 0
end
*xyz 0 1
 C        1.2021210000    -0.2581760000     0.9326280000 
 C        2.5964690000    -0.6509840000     0.4733420000 
 C        3.2321870000     0.3898030000    -0.4352440000 
 C        4.6632220000     0.0600020000    -0.8529350000 
 N        4.8318770000    -1.1944100000    -1.5821780000 
 C        5.3277660000     1.1374920000    -1.6606490000 
 C        4.8107710000     2.3049470000    -2.0174470000 
 H        0.7625590000    -1.0211630000     1.5791950000 
 H        0.5314720000    -0.1187320000     0.0800860000 
 H        1.2209780000     0.6811530000     1.4922150000 
 H        2.5432160000    -1.6144840000    -0.0454810000 
 H        3.2392420000    -0.8085340000     1.3480260000 
 H        3.2278760000     1.3559350000     0.0830030000 
 H        2.6159650000     0.5173540000    -1.3345060000 
 H        5.2581510000    -0.0496480000     0.0665950000 
 H        4.2932310000    -1.1724880000    -2.4410730000 
 H        4.4983590000    -1.9772150000    -1.0345420000 
 H        6.3336500000     0.8782010000    -1.9829970000 
 H        3.8089350000     2.6093830000    -1.7358440000 
 H        5.3833510000     3.0088740000    -2.6104030000 
*
