! RI PBE def2-SVP def2-SVP/J NBO PAL2
% maxcore 2000
% output
    # printlevel mini
    print[ P_Basis ] 0
    print[ P_SCFInfo ] 1
    print[ P_SCFIterInfo ] 1
    print[ P_OrbEn ] 0
    print[ P_Cartesian ] 0
end
*xyz 0 1
 C        1.3105670000    -0.0225150000     0.3966060000 
 C        2.5319890000    -0.1175150000    -0.1163510000 
 C        3.0612860000     0.7551350000    -1.1755420000 
 C        2.3221200000     1.1340880000    -2.2253080000 
 N        4.3921710000     1.1265420000    -0.9800780000 
 C        5.3705310000     1.3520350000    -1.9273480000 
 N        5.3293010000     1.2625120000    -3.1879770000 
 H        0.9671900000    -0.7106600000     1.1595550000 
 H        0.6207180000     0.7481290000     0.0704850000 
 H        3.2182960000    -0.8719930000     0.2640860000 
 H        1.3258250000     0.7323020000    -2.3445960000 
 H        2.6726240000     1.8459680000    -2.9594970000 
 H        4.7141850000     1.1101130000    -0.0271340000 
 H        6.3135630000     1.6381990000    -1.4564230000 
 H        4.4135260000     0.9662490000    -3.5188580000 
*
