! RI PBE def2-SVP def2-SVP/J NBO PAL2
% maxcore 2000
% output
    # printlevel mini
    print[ P_Basis ] 0
    print[ P_SCFInfo ] 1
    print[ P_SCFIterInfo ] 1
    print[ P_OrbEn ] 0
    print[ P_Cartesian ] 0
end
*xyz 0 1
 C        2.1371870000     3.3847290000    -0.6407740000 
 C        2.6432500000     2.2975620000    -0.0732780000 
 C        3.0719690000     1.0704020000    -0.8083580000 
 C        4.5578850000     0.7760390000    -0.6353840000 
 N        5.3497450000     1.8671030000    -1.1356750000 
 C        6.7118680000     1.8315570000    -1.1735080000 
 N        7.4972410000     0.8601340000    -0.9357070000 
 H        1.8482810000     4.2496110000    -0.0549310000 
 H        1.9793270000     3.4411190000    -1.7138470000 
 H        2.7824140000     2.2808720000     1.0070240000 
 H        2.8420060000     1.1734970000    -1.8729290000 
 H        2.5144110000     0.2042740000    -0.4361330000 
 H        4.8085910000    -0.1354840000    -1.1883140000 
 H        4.7778500000     0.5772860000     0.4246340000 
 H        4.9111020000     2.7741290000    -1.1319300000 
 H        7.1481810000     2.7853170000    -1.4787610000 
 H        6.9911920000     0.0227620000    -0.6514310000 
*
