! RI PBE def2-SVP def2-SVP/J NBO PAL2
% maxcore 2000
% output
    # printlevel mini
    print[ P_Basis ] 0
    print[ P_SCFInfo ] 1
    print[ P_SCFIterInfo ] 1
    print[ P_OrbEn ] 0
    print[ P_Cartesian ] 0
end
*xyz 0 1
 C        0.9196620000     0.0431540000    -0.0674100000 
 C        2.1146770000     0.0822770000    -0.0732200000 
 C        3.5760280000     0.1152660000    -0.0781080000 
 C        4.1064840000     0.5766130000    -1.3688890000 
 N        4.5241370000     0.9105190000    -2.3838900000 
 C        4.1063700000     0.9319670000     1.0228430000 
 N        4.5239440000     1.5465540000     1.8969550000 
 H       -0.1453500000     0.0130440000    -0.0627790000 
 H        3.9530480000    -0.9064040000     0.0736990000 
*
