! RI PBE def2-SVP def2-SVP/J NBO PAL2
% maxcore 2000
% output
    # printlevel mini
    print[ P_Basis ] 0
    print[ P_SCFInfo ] 1
    print[ P_SCFIterInfo ] 1
    print[ P_OrbEn ] 0
    print[ P_Cartesian ] 0
end
*xyz 0 1
 C        3.3605460000     1.9492890000     1.0139450000 
 C        2.9576400000     0.5647360000     0.6079850000 
 C        2.2621260000    -0.2285620000     1.4186450000 
 C        3.3767890000     0.0843140000    -0.7673240000 
 N        2.9952390000     0.9649010000    -1.8642100000 
 C        4.8812530000    -0.1580830000    -0.8464210000 
 N        5.2905230000    -1.1793900000     0.0976840000 
 H        3.0488490000     2.1659660000     2.0361650000 
 H        2.9107400000     2.7021240000     0.3594190000 
 H        4.4451480000     2.0875000000     0.9526390000 
 H        1.9581040000     0.0918080000     2.4100550000 
 H        1.9745080000    -1.2289090000     1.1127110000 
 H        2.8946420000    -0.8829470000    -0.9392100000 
 H        3.4778020000     1.8536580000    -1.7998990000 
 H        2.0023700000     1.1613960000    -1.8318060000 
 H        5.4018470000     0.8077960000    -0.7212000000 
 H        5.0990750000    -0.5028170000    -1.8603410000 
 H        5.0537510000    -0.9072040000     1.0443940000 
 H        6.2899470000    -1.3285640000     0.0597490000 
*
