! RI PBE def2-SVP def2-SVP/J NBO PAL2
% maxcore 2000
% output
    # printlevel mini
    print[ P_Basis ] 0
    print[ P_SCFInfo ] 1
    print[ P_SCFIterInfo ] 1
    print[ P_OrbEn ] 0
    print[ P_Cartesian ] 0
end
*xyz 0 1
 C        0.8092020000     0.1812180000     0.1911120000 
 C        2.2598190000    -0.1781640000     0.2335990000 
 C        2.6259440000    -1.2669950000     1.1907860000 
 C        3.1327920000     0.4602490000    -0.5511660000 
 N        4.4974300000     0.2364070000    -0.6188230000 
 C        5.3854710000     0.8982970000    -1.4308570000 
 N        5.1951520000     1.8254360000    -2.2745330000 
 H        0.4547120000     0.5122590000     1.1739650000 
 H        0.1954530000    -0.6833090000    -0.0866500000 
 H        0.6092890000     0.9798500000    -0.5251670000 
 H        2.0831860000    -2.1884230000     0.9534200000 
 H        2.3437980000    -0.9934020000     2.2132870000 
 H        3.6892400000    -1.5130380000     1.2041110000 
 H        2.7768510000     1.2381150000    -1.2157470000 
 H        4.8859880000    -0.4732300000    -0.0233000000 
 H        6.4045760000     0.5324520000    -1.2913280000 
 H        4.2189950000     2.1054870000    -2.3415000000 
*
