! RI PBE def2-SVP def2-SVP/J NBO PAL2
% maxcore 2000
% output
    # printlevel mini
    print[ P_Basis ] 0
    print[ P_SCFInfo ] 1
    print[ P_SCFIterInfo ] 1
    print[ P_OrbEn ] 0
    print[ P_Cartesian ] 0
end
*xyz 0 1
 C        0.9204210000    -0.0820630000    -0.0013730000 
 C        2.4588860000    -0.1042110000     0.0025680000 
 C        2.9929450000    -1.5244490000     0.2578180000 
 C        2.9531750000     0.3725720000    -1.2965090000 
 N        3.3158130000     0.7068440000    -2.3339210000 
 C        2.9532550000     0.7950530000     1.0543180000 
 N        3.3156690000     1.4698750000     1.9103220000 
 H        0.5527900000    -0.7447600000    -0.7854090000 
 H        0.5446720000     0.9243980000    -0.1822830000 
 H        0.5528470000    -0.4302110000     0.9644010000 
 H        2.6313230000    -2.1912450000    -0.5255360000 
 H        2.6313070000    -1.8768030000     1.2243060000 
 H        4.0823060000    -1.5375890000     0.2601880000 
*
