! RI PBE def2-SVP def2-SVP/J NBO PAL2
% maxcore 2000
% output
    # printlevel mini
    print[ P_Basis ] 0
    print[ P_SCFInfo ] 1
    print[ P_SCFIterInfo ] 1
    print[ P_OrbEn ] 0
    print[ P_Cartesian ] 0
end
*xyz 0 1
 C        0.8623510000    -0.1979670000    -0.1394770000 
 C        2.3693860000    -0.0105120000    -0.2439190000 
 C        2.7483290000     0.6574470000    -1.5572250000 
 C        2.9224590000     0.7934180000     0.9261190000 
 N        2.7502890000     0.1057330000     2.1798000000 
 C        3.0536610000     0.6700840000     3.3831620000 
 N        3.3900110000     1.8669970000     3.6483110000 
 H        0.4900980000    -0.8241760000    -0.9536320000 
 H        0.3527590000     0.7684850000    -0.2020110000 
 H        0.5719590000    -0.6623650000     0.8048390000 
 H        2.8473760000    -1.0004110000    -0.2193420000 
 H        2.3124010000     1.6591580000    -1.6225170000 
 H        2.3795910000     0.0818030000    -2.4090170000 
 H        3.8316660000     0.7559770000    -1.6613640000 
 H        2.3950930000     1.7547260000     0.9750250000 
 H        3.9833890000     1.0231440000     0.7478370000 
 H        2.7101550000    -0.8988140000     2.1486280000 
 H        2.9595740000    -0.0351580000     4.2122990000 
 H        3.4589640000     2.4382320000     2.8076050000 
*
