! RI PBE def2-SVP def2-SVP/J NBO PAL2
% maxcore 2000
% output
    # printlevel mini
    print[ P_Basis ] 0
    print[ P_SCFInfo ] 1
    print[ P_SCFIterInfo ] 1
    print[ P_OrbEn ] 0
    print[ P_Cartesian ] 0
end
*xyz 0 1
 C        1.9209650000     1.2433370000     0.3032550000 
 C        2.8741600000     0.0724940000     0.0868690000 
 C        3.1489410000    -0.1968270000    -1.3548430000 
 C        4.3596400000    -0.1406420000    -1.9067720000 
 N        4.6381250000    -0.3793210000    -3.2401920000 
 C        5.8746000000    -0.3262190000    -3.8366560000 
 N        7.0123310000    -0.0594900000    -3.3455780000 
 H        1.7144530000     1.3922970000     1.3657860000 
 H        0.9657970000     1.0704630000    -0.1999510000 
 H        2.3424180000     2.1688230000    -0.0957060000 
 H        2.4430700000    -0.8235000000     0.5508350000 
 H        3.8185150000     0.2610280000     0.6074060000 
 H        2.2910770000    -0.4408380000    -1.9811560000 
 H        5.2245770000     0.1048990000    -1.3004920000 
 H        3.8625340000    -0.6154320000    -3.8358190000 
 H        5.8157510000    -0.5578740000    -4.9016900000 
 H        6.9769360000     0.1446020000    -2.3490750000 
*
