! RI PBE def2-SVP def2-SVP/J NBO PAL2
% maxcore 2000
% output
    # printlevel mini
    print[ P_Basis ] 0
    print[ P_SCFInfo ] 1
    print[ P_SCFIterInfo ] 1
    print[ P_OrbEn ] 0
    print[ P_Cartesian ] 0
end
*xyz 0 1
 C        2.2136070000    -0.7266270000    -1.1686840000 
 C        2.3121830000    -0.1225810000     0.2294890000 
 C        2.8710360000    -1.0636970000     1.2595420000 
 C        2.1326190000    -1.5083760000     2.2803660000 
 N        4.1949680000    -1.4246000000     1.0229050000 
 C        5.1679050000    -1.8225420000     1.9155440000 
 N        5.1387730000    -1.9270080000     3.1760940000 
 H        1.7644560000    -0.0124920000    -1.8617370000 
 H        1.5968950000    -1.6277420000    -1.1595100000 
 H        3.1898540000    -0.9968610000    -1.5813810000 
 H        1.3187270000     0.1865030000     0.5586330000 
 H        2.9322880000     0.7811620000     0.1966140000 
 H        1.1176330000    -1.1514520000     2.3908240000 
 H        2.4779590000    -2.2477690000     2.9884820000 
 H        4.5293350000    -1.2517980000     0.0902220000 
 H        6.0994480000    -2.0628120000     1.3977250000 
 H        4.2402140000    -1.6469180000     3.5606710000 
*
