! RI PBE def2-SVP def2-SVP/J NBO PAL2
% maxcore 2000
% output
    # printlevel mini
    print[ P_Basis ] 0
    print[ P_SCFInfo ] 1
    print[ P_SCFIterInfo ] 1
    print[ P_OrbEn ] 0
    print[ P_Cartesian ] 0
end
*xyz 0 1
 C        2.5260260000     0.3336250000     1.4107980000 
 C        2.5770820000     0.1283270000    -0.0999900000 
 C        3.0231430000    -1.2529190000    -0.4986070000 
 C        2.1878030000    -2.2706200000    -0.7983220000 
 N        0.8304140000    -2.2349160000    -0.7611820000 
 C        4.4164630000    -1.5131340000    -0.5173560000 
 N        5.5590610000    -1.6845730000    -0.5233960000 
 H        2.2093200000     1.3498840000     1.6572530000 
 H        3.5104920000     0.1702470000     1.8540960000 
 H        1.8301900000    -0.3649960000     1.8812540000 
 H        3.2581020000     0.8592550000    -0.5445020000 
 H        1.5948990000     0.3373720000    -0.5388890000 
 H        2.6065120000    -3.2351050000    -1.0639990000 
 H        0.3626100000    -1.3498230000    -0.6718320000 
 H        0.3211030000    -2.9475240000    -1.2504280000 
*
