! RI PBE def2-SVP def2-SVP/J NBO PAL2
% maxcore 2000
% output
    # printlevel mini
    print[ P_Basis ] 0
    print[ P_SCFInfo ] 1
    print[ P_SCFIterInfo ] 1
    print[ P_OrbEn ] 0
    print[ P_Cartesian ] 0
end
*xyz 0 1
 C        3.0043710000     1.1464830000    -0.6705450000 
 C        2.5019560000    -0.0736820000     0.0842320000 
 C        3.0447330000    -1.4249980000    -0.4001350000 
 C        2.5102240000    -2.5282570000     0.5106190000 
 N        2.6374650000    -1.6019150000    -1.7949600000 
 C        4.5774130000    -1.4424110000    -0.3963900000 
 N        5.1325000000    -1.1752700000     0.9213250000 
 H        2.4750460000     2.0455680000    -0.3462690000 
 H        2.8539330000     1.0260490000    -1.7444600000 
 H        4.0708830000     1.3238540000    -0.5050060000 
 H        1.4080000000    -0.1170220000     0.0118360000 
 H        2.7198350000     0.0216880000     1.1525750000 
 H        1.4168920000    -2.4997560000     0.5466320000 
 H        2.8973560000    -2.4223320000     1.5259410000 
 H        2.8100110000    -3.5117840000     0.1355660000 
 H        1.6252330000    -1.6320680000    -1.8536590000 
 H        2.9698820000    -2.4952820000    -2.1419800000 
 H        4.9234660000    -0.7538770000    -1.1787430000 
 H        4.9000850000    -2.4457040000    -0.6971750000 
 H        5.0901320000    -0.1863090000     1.1342330000 
 H        6.1083550000    -1.4380640000     0.9545560000 
*
