! RI PBE def2-SVP def2-SVP/J NBO PAL2
% maxcore 2000
% output
    # printlevel mini
    print[ P_Basis ] 0
    print[ P_SCFInfo ] 1
    print[ P_SCFIterInfo ] 1
    print[ P_OrbEn ] 0
    print[ P_Cartesian ] 0
end
*xyz 0 1
 C        1.0460960000    -0.1983460000     0.0807680000 
 C        2.5597880000    -0.1335990000     0.0299030000 
 C        3.0691390000     0.8884650000    -1.0089530000 
 C        4.5247580000     1.0184360000    -0.9542970000 
 N        5.6654440000     1.1149150000    -0.8645530000 
 C        2.6332590000     0.5445740000    -2.3631210000 
 N        2.2548680000     0.2594650000    -3.4091470000 
 H        0.7262990000    -0.9244050000     0.8296120000 
 H        0.6260750000    -0.5021580000    -0.8804570000 
 H        0.6141970000     0.7691890000     0.3495050000 
 H        2.9852410000    -1.1098940000    -0.2124250000 
 H        2.9701530000     0.1641740000     0.9975860000 
 H        2.6451940000     1.8731750000    -0.7745200000 
*
