! RI PBE def2-SVP def2-SVP/J NBO PAL2
% maxcore 2000
% output
    # printlevel mini
    print[ P_Basis ] 0
    print[ P_SCFInfo ] 1
    print[ P_SCFIterInfo ] 1
    print[ P_OrbEn ] 0
    print[ P_Cartesian ] 0
end
*xyz 0 1
 C        2.8832800000    -1.2105400000     0.1680040000 
 C        2.7917840000     0.2892370000     0.3994620000 
 C        3.2570130000     1.1428980000    -0.7775840000 
 C        2.7037390000     2.5611200000    -0.6858480000 
 N        1.2576880000     2.5757380000    -0.8767120000 
 C        4.7770970000     1.1717560000    -0.9000520000 
 N        5.1980370000     1.7054640000    -2.1892430000 
 H        2.5448140000    -1.7665770000     1.0456550000 
 H        3.9041820000    -1.5366170000    -0.0487440000 
 H        2.2545690000    -1.5126850000    -0.6746280000 
 H        3.3769490000     0.5652060000     1.2865470000 
 H        1.7544370000     0.5595450000     0.6149550000 
 H        2.8596490000     0.6930230000    -1.7015170000 
 H        3.2504490000     3.1941490000    -1.3962460000 
 H        2.9119830000     2.9470390000     0.3194580000 
 H        1.0360520000     2.3866030000    -1.8473490000 
 H        0.8819290000     3.4921210000    -0.6686780000 
 H        5.1768640000     0.1679340000    -0.6955850000 
 H        5.1770100000     1.8278070000    -0.1176090000 
 H        4.9729220000     1.0491700000    -2.9275500000 
 H        6.2010640000     1.8378880000    -2.2120370000 
*
