! RI PBE def2-SVP def2-SVP/J NBO PAL2
% maxcore 2000
% output
    # printlevel mini
    print[ P_Basis ] 0
    print[ P_SCFInfo ] 1
    print[ P_SCFIterInfo ] 1
    print[ P_OrbEn ] 0
    print[ P_Cartesian ] 0
end
*xyz 0 1
 C        0.6145230000    -0.9248160000    -0.5554110000 
 C        2.0518580000    -0.7206870000    -0.1079300000 
 C        2.8072550000     0.2681870000    -0.9811160000 
 C        4.2441840000     0.5158080000    -0.5386550000 
 N        4.3651130000     1.1533420000     0.7496630000 
 C        4.7601960000     0.5218840000     1.8886590000 
 N        4.8216700000     0.9640940000     3.0791460000 
 H        0.0958550000    -1.6425300000     0.0837860000 
 H        0.5676500000    -1.2992420000    -1.5819270000 
 H        0.0542560000     0.0138490000    -0.5220160000 
 H        2.5794390000    -1.6819600000    -0.1171040000 
 H        2.0683410000    -0.3754370000     0.9307570000 
 H        2.2702100000     1.2250980000    -1.0044360000 
 H        2.8251100000    -0.0917810000    -2.0168220000 
 H        4.7613690000     1.1192520000    -1.2929600000 
 H        4.7829010000    -0.4349330000    -0.4817630000 
 H        4.0264470000     2.0982070000     0.8372360000 
 H        5.0735040000    -0.5096360000     1.7067570000 
 H        4.5075190000     1.9333000000     3.1396360000 
*
