! RI PBE def2-SVP def2-SVP/J NBO PAL2
% maxcore 2000
% output
    # printlevel mini
    print[ P_Basis ] 0
    print[ P_SCFInfo ] 1
    print[ P_SCFIterInfo ] 1
    print[ P_OrbEn ] 0
    print[ P_Cartesian ] 0
end
*xyz 0 1
 C        1.5476090000     0.3416130000     1.1111300000 
 C        2.1470680000     0.0631570000    -0.0371650000 
 C        2.9261280000    -1.1879550000    -0.3134860000 
 C        4.3614240000    -0.8896400000    -0.5866240000 
 N        4.8879980000    -1.1667270000    -1.7085790000 
 N        6.2342900000    -0.8009280000    -1.7584990000 
 C        6.7673080000    -1.0893680000    -2.8702000000 
 H        0.9966220000     1.2639760000     1.2528600000 
 H        1.5810660000    -0.3468810000     1.9500390000 
 H        2.0948810000     0.7770910000    -0.8562020000 
 H        2.5166750000    -1.7148270000    -1.1798990000 
 H        2.8607510000    -1.8525590000     0.5554320000 
 H        4.9555020000    -0.4108220000     0.1973500000 
 H        7.8159810000    -0.8446270000    -3.0100870000 
 H        6.2077880000    -1.5691150000    -3.6753910000 
*
