! RI PBE def2-SVP def2-SVP/J NBO PAL2
% maxcore 2000
% output
    # printlevel mini
    print[ P_Basis ] 0
    print[ P_SCFInfo ] 1
    print[ P_SCFIterInfo ] 1
    print[ P_OrbEn ] 0
    print[ P_Cartesian ] 0
end
*xyz 0 1
 C        0.7543430000    -0.1065750000     0.0754610000 
 C        2.2310580000     0.0418490000     0.0871130000 
 C        3.0966230000    -0.8878370000     0.5016480000 
 C        4.5213800000    -0.6751690000     0.4849500000 
 N        5.3300290000    -1.5810100000     0.8874320000 
 N        6.6515170000    -1.1731340000     0.7878100000 
 C        7.4659370000    -2.0613610000     1.1829680000 
 H        0.3588460000     0.0167450000    -0.9381890000 
 H        0.2805260000     0.6685310000     0.6868670000 
 H        0.4431010000    -1.0820960000     0.4517260000 
 H        2.6290700000     0.9893860000    -0.2737040000 
 H        2.7511790000    -1.8496340000     0.8707160000 
 H        4.9095440000     0.2806750000     0.1205570000 
 H        8.5265280000    -1.8331730000     1.1429070000 
 H        7.1299180000    -3.0307890000     1.5553180000 
*
