! RI PBE def2-SVP def2-SVP/J NBO PAL2
% maxcore 2000
% output
    # printlevel mini
    print[ P_Basis ] 0
    print[ P_SCFInfo ] 1
    print[ P_SCFIterInfo ] 1
    print[ P_OrbEn ] 0
    print[ P_Cartesian ] 0
end
*xyz 0 1
 C        0.7850030000    -1.0101480000    -0.7854370000 
 C        2.2719840000    -0.9271880000    -0.7699820000 
 C        3.0652270000    -1.5395670000     0.1008900000 
 C        4.5520570000    -1.4209510000     0.1079000000 
 N        5.1639450000    -2.7265580000    -0.0291500000 
 N        6.4703220000    -2.7891730000     0.2747850000 
 C        7.1819490000    -3.7139390000    -0.2262190000 
 H        0.3352030000    -0.0208620000    -0.6536510000 
 H        0.4120860000    -1.6621470000     0.0065410000 
 H        0.4217850000    -1.3920620000    -1.7447820000 
 H        2.7308190000    -0.3015920000    -1.5354220000 
 H        2.6336800000    -2.1787890000     0.8694460000 
 H        4.9037200000    -1.0191800000     1.0628520000 
 H        4.8767700000    -0.7221960000    -0.6772020000 
 H        4.8812810000    -3.2323470000    -0.8655630000 
 H        8.2197560000    -3.7771730000     0.0771690000 
 H        6.7923230000    -4.4526580000    -0.9345750000 
*
