! RI PBE def2-SVP def2-SVP/J NBO PAL2
% maxcore 2000
% output
    # printlevel mini
    print[ P_Basis ] 0
    print[ P_SCFInfo ] 1
    print[ P_SCFIterInfo ] 1
    print[ P_OrbEn ] 0
    print[ P_Cartesian ] 0
end
*xyz 0 1
 C        0.8874020000     0.0079140000     0.1201210000 
 C        2.3525170000    -0.2650700000     0.2146870000 
 C        2.9122110000    -0.9433700000     1.2212330000 
 C        3.2189780000     0.2319070000    -0.8424150000 
 N        2.7519400000     0.8873200000    -1.8338270000 
 N        3.7497940000     1.2647110000    -2.7222150000 
 C        3.2972530000     1.9171560000    -3.7106440000 
 H        0.3541800000    -0.4165510000     0.9711840000 
 H        0.4782430000    -0.4090500000    -0.8031570000 
 H        0.6993390000     1.0834180000     0.0797240000 
 H        2.3204280000    -1.3391380000     2.0385700000 
 H        3.9818460000    -1.1200500000     1.2520330000 
 H        4.2916180000     0.0319560000    -0.7734530000 
 H        4.0034270000     2.2566980000    -4.4620510000 
 H        2.2345240000     2.1402390000    -3.8206790000 
*
