! RI PBE def2-SVP def2-SVP/J NBO PAL2
% maxcore 2000
% output
    # printlevel mini
    print[ P_Basis ] 0
    print[ P_SCFInfo ] 1
    print[ P_SCFIterInfo ] 1
    print[ P_OrbEn ] 0
    print[ P_Cartesian ] 0
end
*xyz 0 1
 C        3.3044930000    -1.1419800000     1.0920570000 
 C        2.6454940000     0.0319850000     0.4419300000 
 C        1.8716280000     0.8844890000     1.1075470000 
 C        2.9005840000     0.2235980000    -1.0311350000 
 N        4.2712500000     0.5523000000    -1.3612650000 
 N        5.1173480000    -0.4669880000    -1.5527210000 
 C        6.3700750000    -0.2660660000    -1.4667580000 
 H        3.0921870000    -1.1768780000     2.1614190000 
 H        4.3881280000    -1.1177690000     0.9497890000 
 H        2.9594900000    -2.0764580000     0.6377550000 
 H        1.6780460000     0.7688940000     2.1686770000 
 H        1.3979400000     1.7239880000     0.6090330000 
 H        2.2555390000     1.0199380000    -1.4124510000 
 H        2.6678970000    -0.6901420000    -1.5844400000 
 H        4.6478510000     1.3639720000    -0.8785910000 
 H        7.0316400000    -1.0957950000    -1.6816690000 
 H        6.8046000000     0.7033120000    -1.2025800000 
*
