! RI PBE def2-SVP def2-SVP/J NBO PAL2
% maxcore 2000
% output
    # printlevel mini
    print[ P_Basis ] 0
    print[ P_SCFInfo ] 1
    print[ P_SCFIterInfo ] 1
    print[ P_OrbEn ] 0
    print[ P_Cartesian ] 0
end
*xyz 0 1
 C        1.0590510000    -0.1159340000    -0.1047350000 
 C        2.5035140000    -0.4472480000    -0.2898710000 
 C        3.0249460000    -0.6933710000    -1.6334500000 
 C        2.2813270000    -0.6413490000    -2.7368650000 
 N        3.2123610000    -0.4940590000     0.7845310000 
 N        4.5486360000    -0.8030040000     0.5870970000 
 C        5.1955860000    -0.8331430000     1.6766590000 
 H        0.4228710000    -0.9209350000    -0.4829190000 
 H        0.7940730000     0.7925190000    -0.6527160000 
 H        0.8550980000     0.0331590000     0.9536790000 
 H        4.0800640000    -0.9278850000    -1.6905190000 
 H        1.2222590000    -0.4095000000    -2.7158860000 
 H        2.7169410000    -0.8323280000    -3.7107840000 
 H        6.2552850000    -1.0663440000     1.6357210000 
 H        4.7173770000    -0.6325780000     2.6376490000 
*
