! RI PBE def2-SVP def2-SVP/J NBO PAL2
% maxcore 2000
% output
    # printlevel mini
    print[ P_Basis ] 0
    print[ P_SCFInfo ] 1
    print[ P_SCFIterInfo ] 1
    print[ P_OrbEn ] 0
    print[ P_Cartesian ] 0
end
*xyz 0 1
 C        0.9494910000     0.1211940000     0.0936650000 
 C        2.4681320000     0.1910800000     0.1564010000 
 C        2.9654900000     1.4772900000    -0.5008440000 
 C        2.9403990000     0.1295820000     1.6078960000 
 N        2.9638040000    -0.9644030000    -0.5761130000 
 N        4.2612220000    -1.1716710000    -0.6934080000 
 C        4.7000690000    -2.1813100000    -1.3339030000 
 H        0.5125610000     0.9658340000     0.6282900000 
 H        0.5801550000    -0.7983720000     0.5563970000 
 H        0.5979700000     0.1588380000    -0.9413000000 
 H        2.6174040000     2.3538050000     0.0513400000 
 H        2.6041320000     1.5480510000    -1.5297120000 
 H        4.0565920000     1.4907460000    -0.5202660000 
 H        2.5923190000     1.0026390000     2.1655370000 
 H        4.0308080000     0.1057480000     1.6466870000 
 H        2.5609060000    -0.7703860000     2.0979910000 
 H        2.3077870000    -1.6102250000    -0.9975040000 
 H        5.7721270000    -2.3114700000    -1.4043100000 
 H        4.0435350000    -2.9157890000    -1.8112550000 
*
