! RI PBE def2-SVP def2-SVP/J NBO PAL2
% maxcore 2000
% output
    # printlevel mini
    print[ P_Basis ] 0
    print[ P_SCFInfo ] 1
    print[ P_SCFIterInfo ] 1
    print[ P_OrbEn ] 0
    print[ P_Cartesian ] 0
end
*xyz 0 1
 C        0.9145180000     0.0253080000     0.1158440000 
 C        2.4393010000    -0.0107510000     0.0363350000 
 C        2.9407230000    -1.4182550000    -0.2800360000 
 C        2.9168180000     0.9442910000    -1.0023960000 
 N        3.6714630000     1.9249740000    -0.7169480000 
 N        3.9919880000     2.6842870000    -1.8436040000 
 C        4.7451930000     3.6629780000    -1.5643980000 
 H        0.5572520000    -0.6753570000     0.8743360000 
 H        0.4651550000    -0.2610530000    -0.8398150000 
 H        0.5524110000     1.0223930000     0.3745400000 
 H        2.8587100000     0.3157360000     0.9923180000 
 H        2.5672260000    -1.7586710000    -1.2505160000 
 H        2.5915480000    -2.1246800000     0.4768780000 
 H        4.0316550000    -1.4563810000    -0.3052160000 
 H        2.5998710000     0.7847380000    -2.0398940000 
 H        5.0522240000     4.3166740000    -2.3753040000 
 H        5.0859640000     3.8606690000    -0.5464130000 
*
