! RI PBE def2-SVP def2-SVP/J NBO PAL2
% maxcore 2000
% output
    # printlevel mini
    print[ P_Basis ] 0
    print[ P_SCFInfo ] 1
    print[ P_SCFIterInfo ] 1
    print[ P_OrbEn ] 0
    print[ P_Cartesian ] 0
end
*xyz 0 1
 C        0.8618150000     0.1748710000    -0.2873020000 
 C        2.3830340000     0.1543640000    -0.2908100000 
 C        2.9557680000     1.5435040000    -0.0505330000 
 C        2.9360950000    -0.8207980000     0.7404850000 
 N        2.5629640000    -2.1849090000     0.4408680000 
 N        2.6873470000    -3.0603450000     1.4507930000 
 C        2.8399670000    -4.2940980000     1.1904790000 
 H        0.4762710000     0.8210690000    -1.0798060000 
 H        0.4871560000     0.5581590000     0.6671860000 
 H        0.4507110000    -0.8261490000    -0.4278490000 
 H        2.7208530000    -0.1812050000    -1.2820790000 
 H        2.6631670000     1.9171060000     0.9358780000 
 H        2.5867660000     2.2534370000    -0.7943070000 
 H        4.0478420000     1.5444130000    -0.0972250000 
 H        2.5302410000    -0.5931130000     1.7298920000 
 H        4.0291420000    -0.7054060000     0.8070660000 
 H        2.8894560000    -2.5196750000    -0.4632550000 
 H        2.8806930000    -4.9877380000     2.0211730000 
 H        2.9171320000    -4.6856880000     0.1704560000 
*
