! RI PBE def2-SVP def2-SVP/J NBO PAL2
% maxcore 2000
% output
    # printlevel mini
    print[ P_Basis ] 0
    print[ P_SCFInfo ] 1
    print[ P_SCFIterInfo ] 1
    print[ P_OrbEn ] 0
    print[ P_Cartesian ] 0
end
*xyz 0 1
 C        0.8772860000     0.1649270000    -0.0099410000 
 C        2.3178720000     0.0509430000     0.0508500000 
 C        3.5159390000    -0.0624460000     0.1186790000 
 C        4.9279210000    -0.1301670000     0.1412750000 
 N        5.5486970000    -0.9845670000     0.8634490000 
 N        6.9234930000    -0.8562960000     0.7175020000 
 C        7.5605810000    -1.6947970000     1.4241620000 
 H        0.5705020000     0.9065800000    -0.7509270000 
 H        0.4740030000     0.4650330000     0.9608200000 
 H        0.4253450000    -0.7938460000    -0.2769000000 
 H        5.4899170000     0.5722750000    -0.4797880000 
 H        8.6451510000    -1.6758710000     1.3798920000 
 H        7.0521040000    -2.4195680000     2.0621270000 
*
