! RI PBE def2-SVP def2-SVP/J NBO PAL2
% maxcore 2000
% output
    # printlevel mini
    print[ P_Basis ] 0
    print[ P_SCFInfo ] 1
    print[ P_SCFIterInfo ] 1
    print[ P_OrbEn ] 0
    print[ P_Cartesian ] 0
end
*xyz 0 1
 C        1.0441030000     0.0720800000     0.1334860000 
 C        2.4942120000     0.0613600000     0.1042570000 
 C        3.6957910000     0.0613460000     0.0797360000 
 C        5.1496490000     0.0587430000     0.0512580000 
 N        5.6518300000    -1.2903450000    -0.0182500000 
 N        6.9573980000    -1.4803010000    -0.0543530000 
 C        7.4326990000    -2.6602140000    -0.1154110000 
 H        0.6447570000     0.8042510000    -0.5727200000 
 H        0.6713660000     0.3236360000     1.1294750000 
 H        0.6428090000    -0.9074210000    -0.1382720000 
 H        5.5343250000     0.5618090000     0.9481370000 
 H        5.4999880000     0.6393770000    -0.8121690000 
 H        5.0007670000    -2.0639600000    -0.0378050000 
 H        8.5088560000    -2.7701680000    -0.1431080000 
 H        6.8055510000    -3.5563820000    -0.1405620000 
*
