! RI PBE def2-SVP def2-SVP/J NBO PAL2
% maxcore 2000
% output
    # printlevel mini
    print[ P_Basis ] 0
    print[ P_SCFInfo ] 1
    print[ P_SCFIterInfo ] 1
    print[ P_OrbEn ] 0
    print[ P_Cartesian ] 0
end
*xyz 0 1
 C        2.1304810000     0.3357820000    -1.4944870000 
 C        2.5235950000    -0.0164080000    -0.0631330000 
 C        2.7884770000     1.1877770000     0.7851260000 
 C        1.6676200000     2.1450870000     1.0351370000 
 N        3.9770950000     1.3351800000     1.2305090000 
 N        4.1753060000     2.4255460000     2.0449280000 
 C        5.2897620000     3.0048410000     1.8885240000 
 H        1.9363270000    -0.5694440000    -2.0730200000 
 H        2.9309420000     0.8883200000    -1.9921070000 
 H        1.2270830000     0.9493820000    -1.5271080000 
 H        3.4191100000    -0.6399060000    -0.0549750000 
 H        1.7123590000    -0.5910440000     0.4013280000 
 H        0.7027550000     1.6368090000     0.9893160000 
 H        1.6609880000     2.9344950000     0.2770400000 
 H        1.7993080000     2.6299210000     2.0029500000 
 H        5.5185340000     3.8499600000     2.5305450000 
 H        6.0174580000     2.6846010000     1.1397290000 
*
