! RI PBE def2-SVP def2-SVP/J NBO PAL2
% maxcore 2000
% output
    # printlevel mini
    print[ P_Basis ] 0
    print[ P_SCFInfo ] 1
    print[ P_SCFIterInfo ] 1
    print[ P_OrbEn ] 0
    print[ P_Cartesian ] 0
end
*xyz 0 1
 C        2.8667210000    -0.7264940000     1.0813980000 
 C        2.5341420000     0.3136460000     0.0271530000 
 C        3.1168550000     0.0056580000    -1.3470160000 
 C        2.6158070000     0.9799390000    -2.4051780000 
 N        4.5727210000    -0.0536430000    -1.2880030000 
 N        5.1936030000     1.0833320000    -0.9427500000 
 C        6.4072270000     1.2610270000    -1.2713350000 
 H        2.4272220000    -0.4616690000     2.0456600000 
 H        3.9461260000    -0.8157500000     1.2149560000 
 H        2.4826550000    -1.7121700000     0.8017360000 
 H        2.8980860000     1.2965910000     0.3399660000 
 H        1.4485410000     0.4020230000    -0.0833650000 
 H        2.8119120000    -1.0103100000    -1.6258940000 
 H        2.9231610000     1.9978670000    -2.1543720000 
 H        1.5255040000     0.9558590000    -2.4736230000 
 H        3.0218260000     0.7359870000    -3.3906720000 
 H        5.0028520000    -0.5653240000    -2.0541760000 
 H        6.9006440000     2.1641430000    -0.9335690000 
 H        6.9766840000     0.5386080000    -1.8661350000 
*
