! RI PBE def2-SVP def2-SVP/J NBO PAL2
% maxcore 2000
% output
    # printlevel mini
    print[ P_Basis ] 0
    print[ P_SCFInfo ] 1
    print[ P_SCFIterInfo ] 1
    print[ P_OrbEn ] 0
    print[ P_Cartesian ] 0
end
*xyz 0 1
 C        2.9859340000     0.9883890000     0.7718060000 
 C        2.6512880000    -0.1118440000    -0.2228100000 
 C        3.1223030000    -1.4996670000     0.1874220000 
 C        2.4694280000    -2.5705860000    -0.6834370000 
 N        1.0462720000    -2.6752900000    -0.3973590000 
 N        4.5689580000    -1.6011960000     0.0882740000 
 C        5.1678800000    -2.6007360000     0.9450260000 
 H        2.6048600000     1.9536760000     0.4306590000 
 H        4.0632150000     1.1095820000     0.9224250000 
 H        2.5397120000     0.7832560000     1.7489720000 
 H        3.0896090000     0.1173490000    -1.2017330000 
 H        1.5689160000    -0.1645950000    -0.3633910000 
 H        2.7899450000    -1.6738450000     1.2313820000 
 H        3.0146820000    -3.5164840000    -0.5566890000 
 H        2.5941200000    -2.2777640000    -1.7305510000 
 H        0.8969450000    -3.1070400000     0.5066970000 
 H        0.5846390000    -3.2591140000    -1.0820650000 
 H        4.9816120000    -0.7007810000     0.2883820000 
 H        4.8674940000    -3.6032900000     0.6310710000 
 H        4.8974660000    -2.4930580000     2.0092660000 
 H        6.2555130000    -2.5511580000     0.8616730000 
*
