! RI PBE def2-SVP def2-SVP/J NBO PAL2
% maxcore 2000
% output
    # printlevel mini
    print[ P_Basis ] 0
    print[ P_SCFInfo ] 1
    print[ P_SCFIterInfo ] 1
    print[ P_OrbEn ] 0
    print[ P_Cartesian ] 0
end
*xyz 0 1
 C        1.6198950000    -0.6771560000     0.5754360000 
 C        2.9908120000    -0.0951710000     0.2780050000 
 C        3.0164420000     0.6935590000    -1.0309050000 
 C        4.3375360000     1.3183570000    -1.2892690000 
 N        5.0154900000     1.0380740000    -2.3267130000 
 N        6.2264400000     1.7313890000    -2.3623640000 
 C        6.8993740000     1.4691070000    -3.4022960000 
 H        1.6230320000    -1.2424720000     1.5098200000 
 H        1.2970810000    -1.3526590000    -0.2212540000 
 H        0.8674430000     0.1112500000     0.6651660000 
 H        3.7333270000    -0.8975930000     0.2240130000 
 H        3.3029970000     0.5566860000     1.1013270000 
 H        2.2613660000     1.4890990000    -0.9768430000 
 H        2.7566260000     0.0509260000    -1.8755520000 
 H        4.7373980000     2.0283050000    -0.5572200000 
 H        7.8604060000     1.9598820000    -3.5238180000 
 H        6.5422460000     0.7745160000    -4.1649540000 
*
