! RI PBE def2-SVP def2-SVP/J NBO PAL2
% maxcore 2000
% output
    # printlevel mini
    print[ P_Basis ] 0
    print[ P_SCFInfo ] 1
    print[ P_SCFIterInfo ] 1
    print[ P_OrbEn ] 0
    print[ P_Cartesian ] 0
end
*xyz 0 1
 C        0.4948210000    -0.1205990000    -0.2655920000 
 C        1.9769590000    -0.3598510000    -0.0369800000 
 C        2.7460040000     0.9351510000     0.2191830000 
 C        4.2152870000     0.6996930000     0.4710060000 
 N        4.7684760000     0.5887990000     1.6181080000 
 N        4.9625110000     0.5291930000    -0.6566050000 
 C        6.3895810000     0.3577090000    -0.5797920000 
 H       -0.0362180000    -1.0582910000    -0.4435770000 
 H        0.3261770000     0.5261750000    -1.1314320000 
 H        0.0339180000     0.3626670000     0.6004440000 
 H        2.4115390000    -0.8719710000    -0.9010010000 
 H        2.1207120000    -1.0287790000     0.8172870000 
 H        2.3251210000     1.4481930000     1.0881190000 
 H        2.6146990000     1.6104000000    -0.6356200000 
 H        4.0758810000     0.6965690000     2.3522470000 
 H        4.5753740000     0.8653960000    -1.5191040000 
 H        6.8906050000     1.2367290000    -0.1594730000 
 H        6.7793350000     0.1634170000    -1.5795190000 
 H        6.6247980000    -0.4891010000     0.0662920000 
*
