! RI PBE def2-SVP def2-SVP/J NBO PAL2
% maxcore 2000
% output
    # printlevel mini
    print[ P_Basis ] 0
    print[ P_SCFInfo ] 1
    print[ P_SCFIterInfo ] 1
    print[ P_OrbEn ] 0
    print[ P_Cartesian ] 0
end
*xyz 0 1
 C        1.5953270000    -0.5656180000     1.1414760000 
 C        2.9544450000    -0.1060660000     0.6421860000 
 C        3.1146560000    -0.2622010000    -0.8615090000 
 C        4.4717950000     0.1971170000    -1.3569770000 
 N        4.5689060000     0.0276880000    -2.7807820000 
 N        5.6773110000     0.3714840000    -3.4106700000 
 C        5.7705340000     0.2253130000    -4.6726760000 
 H        1.5046700000    -0.4436650000     2.2230360000 
 H        1.4264510000    -1.6212620000     0.9110710000 
 H        0.7889930000     0.0065430000     0.6740940000 
 H        3.7436950000    -0.6719990000     1.1495270000 
 H        3.1110100000     0.9436950000     0.9143590000 
 H        2.3293250000     0.3091730000    -1.3720880000 
 H        2.9649380000    -1.3139790000    -1.1358230000 
 H        5.2621380000    -0.3758990000    -0.8554390000 
 H        4.6249610000     1.2512060000    -1.0924610000 
 H        3.7863480000    -0.3529890000    -3.2976030000 
 H        6.6963520000     0.5192830000    -5.1495430000 
 H        4.9616660000    -0.1813150000    -5.2881770000 
*
