! RI PBE def2-SVP def2-SVP/J NBO PAL2
% maxcore 2000
% output
    # printlevel mini
    print[ P_Basis ] 0
    print[ P_SCFInfo ] 1
    print[ P_SCFIterInfo ] 1
    print[ P_OrbEn ] 0
    print[ P_Cartesian ] 0
end
*xyz 0 1
 C        1.1730330000     0.0372770000     0.7451260000 
 C        2.6712250000     0.1294330000     0.5123060000 
 C        3.0314190000     0.1290910000    -0.9610850000 
 N        4.4660970000     0.1736290000    -1.1547650000 
 C        4.9215720000     0.6652810000    -2.4394110000 
 C        5.0698940000     1.4893850000    -1.2182330000 
 C        6.3889370000     1.6904120000    -0.5360270000 
 H        0.9357280000     0.0362580000     1.8110660000 
 H        0.7611320000    -0.8797540000     0.3142130000 
 H        0.6457490000     0.8804770000     0.2898020000 
 H        3.1840740000    -0.7078980000     0.9949630000 
 H        3.0653450000     1.0408420000     0.9754670000 
 H        2.5281350000     0.9743860000    -1.4658040000 
 H        2.6572280000    -0.7871490000    -1.4322330000 
 H        4.1666850000     0.9668970000    -3.1625410000 
 H        5.7843790000     0.1590900000    -2.8615880000 
 H        4.3752390000     2.3275780000    -1.1452380000 
 H        7.0151590000     0.8043570000    -0.6542780000 
 H        6.2537150000     1.8677420000     0.5343610000 
 H        6.9195540000     2.5486670000    -0.9572790000 
*
