! RI PBE def2-SVP def2-SVP/J NBO PAL2
% maxcore 2000
% output
    # printlevel mini
    print[ P_Basis ] 0
    print[ P_SCFInfo ] 1
    print[ P_SCFIterInfo ] 1
    print[ P_OrbEn ] 0
    print[ P_Cartesian ] 0
end
*xyz 0 1
 C        1.4357780000    -0.3419700000     0.7868290000 
 C        2.7742640000    -0.7831800000     0.2237800000 
 C        3.9285590000    -0.3475690000     1.1072320000 
 N        2.9447130000    -0.2121530000    -1.1038660000 
 C        3.8059520000    -0.9433280000    -2.0115560000 
 C        2.3374630000    -0.9278090000    -2.2056760000 
 C        1.6737930000    -0.1263300000    -3.2841750000 
 H        0.6127220000    -0.6644660000     0.1445770000 
 H        1.4002670000     0.7476040000     0.8622200000 
 H        1.2752080000    -0.7640450000     1.7814860000 
 H        2.7805080000    -1.8877340000     0.1600590000 
 H        3.9432670000     0.7413150000     1.1977740000 
 H        3.8357200000    -0.7776780000     2.1070980000 
 H        4.8860460000    -0.6652630000     0.6877760000 
 H        4.2545110000    -1.8672610000    -1.6516870000 
 H        4.4460860000    -0.3414520000    -2.6492350000 
 H        1.8336350000    -1.8580590000    -1.9395620000 
 H        2.2419550000     0.7840560000    -3.4832390000 
 H        0.6619220000     0.1651990000    -2.9900510000 
 H        1.6045390000    -0.7014680000    -4.2114740000 
*
