! RI PBE def2-SVP def2-SVP/J NBO PAL2
% maxcore 2000
% output
    # printlevel mini
    print[ P_Basis ] 0
    print[ P_SCFInfo ] 1
    print[ P_SCFIterInfo ] 1
    print[ P_OrbEn ] 0
    print[ P_Cartesian ] 0
end
*xyz 0 1
 C        0.8610160000     0.2831410000     0.1842560000 
 C        2.2667880000     0.8484910000     0.0769100000 
 C        3.3284880000    -0.2354070000     0.0441760000 
 N        4.6579330000     0.3039920000    -0.0534380000 
 C        5.7822650000    -0.6329290000    -0.1195970000 
 C        6.4794680000     0.3226330000    -1.0982190000 
 C        5.0811760000     0.9175140000    -1.3175080000 
 H        0.1123930000     1.0779360000     0.2048080000 
 H        0.7409740000    -0.3081910000     1.0964670000 
 H        0.6289250000    -0.3682780000    -0.6630000000 
 H        2.4760750000     1.5154600000     0.9188270000 
 H        2.3490080000     1.4595550000    -0.8290420000 
 H        3.1166730000    -0.9305610000    -0.7941290000 
 H        3.2723000000    -0.8297670000     0.9639500000 
 H        5.5109870000    -1.5840420000    -0.6066590000 
 H        6.2658050000    -0.8497970000     0.8369050000 
 H        6.9815030000    -0.1151310000    -1.9591410000 
 H        7.1507400000     1.0167990000    -0.5931360000 
 H        4.5805810000     0.4681080000    -2.1915860000 
 H        4.9801250000     2.0043760000    -1.3715340000 
*
