! RI PBE def2-SVP def2-SVP/J NBO PAL2
% maxcore 2000
% output
    # printlevel mini
    print[ P_Basis ] 0
    print[ P_SCFInfo ] 1
    print[ P_SCFIterInfo ] 1
    print[ P_OrbEn ] 0
    print[ P_Cartesian ] 0
end
*xyz 0 1
 C        3.6633000000    -2.5545380000     0.1145530000 
 C        3.6297460000    -1.3557850000     0.0761600000 
 C        3.6067080000     0.0998290000     0.0442440000 
 N        4.1450300000     0.6294690000    -1.1830240000 
 C        4.2666130000     2.0863390000    -1.2950920000 
 C        5.5758320000     1.8784400000    -2.0694830000 
 C        5.5808930000     0.4748720000    -1.4457030000 
 H        3.6874350000    -3.6180770000     0.1437360000 
 H        4.1536810000     0.4785360000     0.9300760000 
 H        2.5707420000     0.4430630000     0.1446250000 
 H        4.4448780000     2.5729000000    -0.3220380000 
 H        3.4323060000     2.5851480000    -1.7949900000 
 H        6.4092260000     2.5367830000    -1.8317710000 
 H        5.4201210000     1.8529710000    -3.1475150000 
 H        6.1782330000     0.4423930000    -0.5205910000 
 H        5.8483360000    -0.3788540000    -2.0712860000 
*
