! RI PBE def2-SVP def2-SVP/J NBO PAL2
% maxcore 2000
% output
    # printlevel mini
    print[ P_Basis ] 0
    print[ P_SCFInfo ] 1
    print[ P_SCFIterInfo ] 1
    print[ P_OrbEn ] 0
    print[ P_Cartesian ] 0
end
*xyz 0 1
 C        1.0819090000    -0.0369710000     0.0539620000 
 C        2.5875560000    -0.2322500000     0.1293540000 
 C        2.9381390000    -1.4218470000     1.0230170000 
 N        3.1268750000    -0.2878060000    -1.2152980000 
 C        4.5665040000    -0.3485870000    -1.4609310000 
 C        4.2711350000    -1.1586370000    -2.7326630000 
 C        2.8953710000    -1.4301040000    -2.1041600000 
 H        0.6517820000     0.0841980000     1.0507060000 
 H        0.6026720000    -0.9054550000    -0.4087760000 
 H        0.8387030000     0.8427320000    -0.5442820000 
 H        3.0258170000     0.6675270000     0.5806440000 
 H        2.4725610000    -2.3433770000     0.6629040000 
 H        2.5769550000    -1.2487880000     2.0396020000 
 H        4.0165360000    -1.5864320000     1.0817900000 
 H        5.1237830000    -0.9454620000    -0.7224630000 
 H        5.0570060000     0.6239580000    -1.5661470000 
 H        4.9061310000    -2.0188700000    -2.9379500000 
 H        4.2044040000    -0.5289940000    -3.6194230000 
 H        2.8726960000    -2.4021020000    -1.5886960000 
 H        2.0119460000    -1.3508230000    -2.7437720000 
*
