! RI PBE def2-SVP def2-SVP/J NBO PAL2
% maxcore 2000
% output
    # printlevel mini
    print[ P_Basis ] 0
    print[ P_SCFInfo ] 1
    print[ P_SCFIterInfo ] 1
    print[ P_OrbEn ] 0
    print[ P_Cartesian ] 0
end
*xyz 0 1
 C        0.8597800000    -0.3218370000    -0.3715410000 
 C        2.3238600000    -0.0745670000    -0.0521600000 
 C        2.8135120000     1.2691440000    -0.5568090000 
 N        4.2053380000     1.4899150000    -0.2162020000 
 C        4.7251390000     2.7351700000    -0.6807950000 
 C        4.5897690000     3.9214380000     0.2225190000 
 C        5.9310900000     3.2852200000     0.0080830000 
 H        0.5303400000    -1.2952120000    -0.0020350000 
 H        0.6778850000    -0.2978510000    -1.4496540000 
 H        0.2220500000     0.4391600000     0.0868660000 
 H        2.9354840000    -0.8696550000    -0.4965110000 
 H        2.4924790000    -0.1247550000     1.0279120000 
 H        2.2254070000     2.0709770000    -0.0961450000 
 H        2.6295000000     1.3391240000    -1.6447500000 
 H        4.7717330000     0.7250790000    -0.5649780000 
 H        4.6430400000     2.9429420000    -1.7510780000 
 H        4.1086710000     3.7471880000     1.1767140000 
 H        4.3990460000     4.8898480000    -0.2226210000 
 H        6.3337370000     2.6954990000     0.8218990000 
 H        6.6658420000     3.8135770000    -0.5863250000 
*
