! RI PBE def2-SVP def2-SVP/J NBO PAL2
% maxcore 2000
% output
    # printlevel mini
    print[ P_Basis ] 0
    print[ P_SCFInfo ] 1
    print[ P_SCFIterInfo ] 1
    print[ P_OrbEn ] 0
    print[ P_Cartesian ] 0
end
*xyz 0 1
 C        2.3138960000    -1.3170390000    -0.1148960000 
 C        2.3646920000    -0.0036530000    -0.2853600000 
 C        3.0439960000     0.6767240000    -1.4263450000 
 N        4.0145060000     1.6449310000    -0.9468860000 
 C        4.6559310000     2.3833690000    -1.9867240000 
 C        3.9917910000     3.6427730000    -2.4491590000 
 C        5.2480390000     3.7080660000    -1.6322340000 
 H        1.7982800000    -1.7620580000     0.7283050000 
 H        2.7819530000    -1.9970640000    -0.8205690000 
 H        1.8982850000     0.6574300000     0.4418970000 
 H        2.3008660000     1.2299430000    -2.0139250000 
 H        3.4798030000    -0.0791540000    -2.1014810000 
 H        4.7020430000     1.1814910000    -0.3645460000 
 H        5.1778590000     1.8112130000    -2.7580420000 
 H        3.0672510000     3.9106760000    -1.9532680000 
 H        4.0437350000     3.8970200000    -3.5002970000 
 H        5.1502430000     4.0204230000    -0.6002870000 
 H        6.1680400000     4.0056090000    -2.1193830000 
*
