! RI PBE def2-SVP def2-SVP/J NBO PAL2
% maxcore 2000
% output
    # printlevel mini
    print[ P_Basis ] 0
    print[ P_SCFInfo ] 1
    print[ P_SCFIterInfo ] 1
    print[ P_OrbEn ] 0
    print[ P_Cartesian ] 0
end
*xyz 0 1
 C        1.0136380000     0.0433400000     0.1173640000 
 C        2.2088370000     0.1209060000     0.0447930000 
 C        3.6560110000     0.2131920000    -0.0701450000 
 N        4.2772560000    -1.0989160000    -0.1425700000 
 C        5.6872550000    -1.0345230000    -0.3557440000 
 C        6.5623930000    -0.9396490000     0.8560830000 
 C        6.5019030000    -2.2126310000     0.0660980000 
 H       -0.0458600000    -0.0251440000     0.1907630000 
 H        4.0552590000     0.7325640000     0.8080640000 
 H        3.8959060000     0.8502060000    -0.9395090000 
 H        3.8273690000    -1.6534030000    -0.8606730000 
 H        6.0359040000    -0.4932150000    -1.2391480000 
 H        6.0598460000    -0.9317500000     1.8151220000 
 H        7.4587680000    -0.3354020000     0.7971890000 
 H        5.9608710000    -3.0409760000     0.5052700000 
 H        7.3555430000    -2.4871970000    -0.5404560000 
*
