! RI PBE def2-SVP def2-SVP/J NBO PAL2
% maxcore 2000
% output
    # printlevel mini
    print[ P_Basis ] 0
    print[ P_SCFInfo ] 1
    print[ P_SCFIterInfo ] 1
    print[ P_OrbEn ] 0
    print[ P_Cartesian ] 0
end
*xyz 0 1
 C        0.4601720000    -0.4855430000     0.6195900000 
 C        1.9158850000    -0.6567980000     0.2259750000 
 C        2.4355010000    -2.0247450000     0.6348130000 
 N        2.0366670000    -0.4636400000    -1.2142870000 
 C        3.3709530000    -0.3149970000    -1.7038570000 
 C        4.0606960000    -1.5048730000    -2.2994230000 
 C        3.5729040000    -0.3967870000    -3.1822790000 
 H        0.3311850000    -0.6146110000     1.6960500000 
 H       -0.1604310000    -1.2242720000     0.1055470000 
 H        0.0913760000     0.5106030000     0.3569850000 
 H        2.5090860000     0.1031100000     0.7684180000 
 H        1.8641930000    -2.8100500000     0.1325590000 
 H        2.3390450000    -2.1603350000     1.7147290000 
 H        3.4872600000    -2.1477800000     0.3722510000 
 H        1.4890620000     0.3444480000    -1.4859790000 
 H        4.0155070000     0.3882340000    -1.1693790000 
 H        3.4996370000    -2.4301960000    -2.3132170000 
 H        5.1275100000    -1.6116190000    -2.1452830000 
 H        2.6917590000    -0.5931810000    -3.7804200000 
 H        4.2999440000     0.2630220000    -3.6384940000 
*
