! RI PBE def2-SVP def2-SVP/J NBO PAL2
% maxcore 2000
% output
    # printlevel mini
    print[ P_Basis ] 0
    print[ P_SCFInfo ] 1
    print[ P_SCFIterInfo ] 1
    print[ P_OrbEn ] 0
    print[ P_Cartesian ] 0
end
*xyz 0 1
 C        1.2120110000     0.1318440000    -0.0943860000 
 C        2.7120350000    -0.1265040000    -0.0142490000 
 C        2.9691940000    -1.5792000000     0.3912020000 
 N        3.2845900000     0.1882190000    -1.3231400000 
 C        3.3125720000     0.7919730000     1.0404070000 
 C        4.7110950000     1.3190600000     0.9486820000 
 C        3.5423800000     2.2435430000     0.7747590000 
 H        0.7368030000    -0.5468750000    -0.8099840000 
 H        1.0211470000     1.1590790000    -0.4105310000 
 H        0.7390760000    -0.0238470000     0.8775590000 
 H        2.5432960000    -2.2665250000    -0.3455130000 
 H        2.5264920000    -1.8095230000     1.3646420000 
 H        4.0436520000    -1.7720670000     0.4596720000 
 H        2.7131810000    -0.2187620000    -2.0535590000 
 H        4.2065820000    -0.2222290000    -1.4139960000 
 H        2.9790010000     0.5456290000     2.0445940000 
 H        5.2898520000     1.0980750000     0.0602330000 
 H        5.2942360000     1.3815380000     1.8592410000 
 H        3.3497820000     2.5857290000    -0.2345290000 
 H        3.3209950000     2.9550220000     1.5606960000 
*
