! RI PBE def2-SVP def2-SVP/J NBO PAL2
% maxcore 2000
% output
    # printlevel mini
    print[ P_Basis ] 0
    print[ P_SCFInfo ] 1
    print[ P_SCFIterInfo ] 1
    print[ P_OrbEn ] 0
    print[ P_Cartesian ] 0
end
*xyz 0 1
 C        0.5018230000     0.0646320000     0.8654640000 
 C        1.8257610000    -0.2356100000     0.1780600000 
 C        3.0025550000    -0.1201520000     1.1430090000 
 N        3.1338560000     1.2320060000     1.6667420000 
 C        1.8120770000    -1.5935760000    -0.4771640000 
 C        1.1863280000    -1.7743140000    -1.8245670000 
 C        2.6751250000    -1.8744220000    -1.6685440000 
 H        0.5356720000     1.0347610000     1.3626450000 
 H        0.2853580000    -0.6940500000     1.6245880000 
 H       -0.3220510000     0.0611660000     0.1479790000 
 H        1.9797140000     0.5083530000    -0.6184700000 
 H        3.9074140000    -0.4860380000     0.6340710000 
 H        2.8258380000    -0.7924450000     1.9906270000 
 H        3.4374170000     1.8638090000     0.9351430000 
 H        3.8361850000     1.2679690000     2.3940670000 
 H        1.6803630000    -2.4208460000     0.2166370000 
 H        0.7901450000    -0.8908530000    -2.3123950000 
 H        0.6281800000    -2.6809080000    -2.0224650000 
 H        3.2756070000    -1.0584610000    -2.0550220000 
 H        3.1369440000    -2.8497200000    -1.7598760000 
*
