! RI PBE def2-SVP def2-SVP/J NBO PAL2
% maxcore 2000
% output
    # printlevel mini
    print[ P_Basis ] 0
    print[ P_SCFInfo ] 1
    print[ P_SCFIterInfo ] 1
    print[ P_OrbEn ] 0
    print[ P_Cartesian ] 0
end
*xyz 0 1
 C        2.5096150000    -0.9319320000    -0.6623460000 
 C        2.1308960000     0.2380890000    -0.1472100000 
 C        0.7493470000     0.4544590000     0.1683630000 
 N       -0.3544110000     0.6511670000     0.4319630000 
 C        3.0408180000     1.3781600000     0.1497500000 
 C        4.2727580000     1.5852220000    -0.6294430000 
 N        3.1409280000     2.4921470000    -0.7941680000 
 H        1.7910700000    -1.7159470000    -0.8661610000 
 H        3.5514030000    -1.1280260000    -0.8824470000 
 H        3.0161250000     1.7054030000     1.1859020000 
 H        4.4977280000     0.8879290000    -1.4294200000 
 H        5.1409650000     2.0176760000    -0.1449870000 
 H        2.6380680000     2.2679210000    -1.6476950000 
*
