! RI PBE def2-SVP def2-SVP/J NBO PAL2
% maxcore 2000
% output
    # printlevel mini
    print[ P_Basis ] 0
    print[ P_SCFInfo ] 1
    print[ P_SCFIterInfo ] 1
    print[ P_OrbEn ] 0
    print[ P_Cartesian ] 0
end
*xyz 0 1
 C        1.0845300000    -0.1563160000     0.2234450000 
 C        2.5761870000     0.0661870000    -0.0022150000 
 C        2.7920080000     1.1354700000    -1.0712200000 
 N        3.1722830000     0.4302880000     1.2824010000 
 C        3.1879050000    -1.2442170000    -0.4817410000 
 C        4.5758670000    -1.6228640000    -0.1690920000 
 N        3.4526720000    -2.3132190000     0.4653310000 
 H        0.5966860000     0.7720830000     0.5362370000 
 H        0.9208520000    -0.9122290000     0.9943800000 
 H        0.6010100000    -0.4959190000    -0.6944420000 
 H        2.3203530000     2.0769080000    -0.7757970000 
 H        2.3667470000     0.8311060000    -2.0316590000 
 H        3.8596540000     1.3178920000    -1.2230820000 
 H        2.5501570000     1.0362530000     1.8012880000 
 H        4.0385700000     0.9374980000     1.1498740000 
 H        2.7724030000    -1.5881290000    -1.4267630000 
 H        5.1652500000    -0.9522970000     0.4482100000 
 H        5.1481620000    -2.2155680000    -0.8746580000 
 H        3.3422260000    -1.9135100000     1.3964930000 
*
