! RI PBE def2-SVP def2-SVP/J NBO PAL2
% maxcore 2000
% output
    # printlevel mini
    print[ P_Basis ] 0
    print[ P_SCFInfo ] 1
    print[ P_SCFIterInfo ] 1
    print[ P_OrbEn ] 0
    print[ P_Cartesian ] 0
end
*xyz 0 1
 C        1.8139390000     0.0203180000    -0.6260560000 
 C        3.0377790000    -0.7682680000    -1.0612490000 
 C        3.4290110000    -0.5359110000    -2.5110520000 
 N        3.8292920000     0.8351470000    -2.7501520000 
 C        4.2216630000     1.0937410000    -4.1199620000 
 C        4.6463310000     2.5381470000    -4.3256340000 
 C        3.5267710000     3.5407720000    -4.1012030000 
 H        1.5823210000    -0.1547210000     0.4272170000 
 H        0.9367130000    -0.2689200000    -1.2119810000 
 H        1.9675640000     1.0907820000    -0.7709510000 
 H        2.8622160000    -1.8396280000    -0.9194510000 
 H        3.8909500000    -0.5170250000    -0.4182350000 
 H        2.5686520000    -0.7500740000    -3.1572760000 
 H        4.2167360000    -1.2565270000    -2.7977150000 
 H        4.5998940000     1.0697810000    -2.1328270000 
 H        3.3588760000     0.8749220000    -4.7613730000 
 H        5.0332050000     0.4222360000    -4.4552980000 
 H        5.0410380000     2.6396030000    -5.3418300000 
 H        5.4858900000     2.7607660000    -3.6547590000 
 H        2.7094860000     3.3755950000    -4.8091980000 
 H        3.8792670000     4.5663150000    -4.2341670000 
 H        3.1143240000     3.4467290000    -3.0954590000 
*
