! RI PBE def2-SVP def2-SVP/J NBO PAL2
% maxcore 2000
% output
    # printlevel mini
    print[ P_Basis ] 0
    print[ P_SCFInfo ] 1
    print[ P_SCFIterInfo ] 1
    print[ P_OrbEn ] 0
    print[ P_Cartesian ] 0
end
*xyz 0 1
 C        2.1595540000     0.9934160000    -1.4520900000 
 C        2.3367680000     0.7507910000    -0.1613720000 
 C        2.8867290000     1.7342430000     0.8169460000 
 N        4.0345230000     1.1849360000     1.5110410000 
 C        4.5912560000     2.0775120000     2.4974740000 
 C        5.7625850000     1.5057760000     3.2268260000 
 C        6.2037560000     0.2598440000     3.1291600000 
 H        1.7477820000     0.2457200000    -2.1200820000 
 H        2.4146450000     1.9552060000    -1.8871140000 
 H        2.0848300000    -0.2245090000     0.2490930000 
 H        2.1214030000     1.9538260000     1.5730580000 
 H        3.1018460000     2.6874110000     0.3029300000 
 H        4.7488000000     0.9317540000     0.8376660000 
 H        3.8046720000     2.3143640000     3.2274150000 
 H        4.8912260000     3.0544930000     2.0718390000 
 H        6.2764270000     2.2047930000     3.8830710000 
 H        5.7065760000    -0.4685750000     2.4987460000 
 H        7.0676130000    -0.0727010000     3.6923830000 
*
