! RI PBE def2-SVP def2-SVP/J NBO PAL2
% maxcore 2000
% output
    # printlevel mini
    print[ P_Basis ] 0
    print[ P_SCFInfo ] 1
    print[ P_SCFIterInfo ] 1
    print[ P_OrbEn ] 0
    print[ P_Cartesian ] 0
end
*xyz 0 1
 C        0.9279780000    -0.9013170000    -0.2083180000 
 C        1.9072910000    -0.0763590000     0.1329380000 
 C        2.7936530000     0.6266360000    -0.8394610000 
 N        4.1890280000     0.3499600000    -0.5565530000 
 C        5.0875370000     1.0371340000    -1.4656440000 
 C        6.4718340000     0.6387750000    -1.2649240000 
 C        7.6111200000     0.2936280000    -1.1153200000 
 H        0.3046300000    -1.3824240000     0.5363880000 
 H        0.7099330000    -1.1201870000    -1.2493930000 
 H        2.1159030000     0.1195620000     1.1820930000 
 H        2.6489380000     1.7108810000    -0.7396380000 
 H        2.4973160000     0.3639860000    -1.8700830000 
 H        4.3593880000    -0.6477990000    -0.5974420000 
 H        4.9972760000     2.1160050000    -1.2910010000 
 H        4.8303900000     0.8758690000    -2.5282390000 
 H        8.6226650000    -0.0063490000    -0.9759020000 
*
