! RI PBE def2-SVP def2-SVP/J NBO PAL2
% maxcore 2000
% output
    # printlevel mini
    print[ P_Basis ] 0
    print[ P_SCFInfo ] 1
    print[ P_SCFIterInfo ] 1
    print[ P_OrbEn ] 0
    print[ P_Cartesian ] 0
end
*xyz 0 1
 C        0.9647850000    -0.4989190000     0.5834280000 
 C        2.1265600000    -0.2660730000     0.3966680000 
 C        3.5277430000     0.0301330000     0.1478270000 
 N        4.1613440000    -1.0007310000    -0.6540560000 
 C        5.5160750000    -0.6349590000    -1.0256770000 
 C        6.0994440000    -1.5949200000    -1.9482440000 
 C        6.5726890000    -2.3745210000    -2.7273980000 
 H       -0.0637980000    -0.7111670000     0.7560440000 
 H        4.0553650000     0.0956020000     1.1071260000 
 H        3.5967010000     1.0337860000    -0.3100480000 
 H        3.6105440000    -1.1834320000    -1.4837400000 
 H        6.1265520000    -0.5973590000    -0.1152820000 
 H        5.5803020000     0.3703560000    -1.4805940000 
 H        6.9949040000    -3.0719070000    -3.4116630000 
*
