! RI PBE def2-SVP def2-SVP/J NBO PAL2
% maxcore 2000
% output
    # printlevel mini
    print[ P_Basis ] 0
    print[ P_SCFInfo ] 1
    print[ P_SCFIterInfo ] 1
    print[ P_OrbEn ] 0
    print[ P_Cartesian ] 0
end
*xyz 0 1
 C        0.8038860000     0.0686660000    -0.1266570000 
 C        2.3100100000     0.2014190000    -0.3137730000 
 C        2.6706220000     0.0225750000    -1.7884850000 
 N        2.6937630000     1.5180360000     0.1991230000 
 C        3.0661430000    -0.8255100000     0.5496330000 
 C        2.7682320000    -2.2582570000     0.2624350000 
 C        3.6548160000    -3.1505730000    -0.1579270000 
 H        0.2836480000     0.8612250000    -0.6729620000 
 H        0.5392470000     0.1588370000     0.9290070000 
 H        0.4342430000    -0.8856900000    -0.5061220000 
 H        2.1523850000     0.7669470000    -2.4000790000 
 H        2.3998000000    -0.9700150000    -2.1568150000 
 H        3.7467340000     0.1512710000    -1.9395800000 
 H        2.2302560000     2.2441280000    -0.3364610000 
 H        3.6906860000     1.6611270000     0.0762600000 
 H        2.8214610000    -0.5989790000     1.5936410000 
 H        4.1421040000    -0.6518140000     0.4304320000 
 H        1.7439170000    -2.5846490000     0.4319480000 
 H        4.6915570000    -2.8789970000    -0.3339200000 
 H        3.3814100000    -4.1844470000    -0.3353270000 
*
