! RI PBE def2-SVP def2-SVP/J NBO PAL2
% maxcore 2000
% output
    # printlevel mini
    print[ P_Basis ] 0
    print[ P_SCFInfo ] 1
    print[ P_SCFIterInfo ] 1
    print[ P_OrbEn ] 0
    print[ P_Cartesian ] 0
end
*xyz 0 1
 C        0.9147440000    -0.0744160000     0.1107150000 
 C        2.4261550000    -0.0187400000    -0.0656160000 
 C        2.8362500000    -0.8018710000    -1.3128900000 
 N        2.8209810000     1.3854720000    -0.1162870000 
 C        3.0840430000    -0.6311840000     1.1869850000 
 C        4.5362900000    -0.5856010000     1.1677960000 
 C        5.7360470000    -0.5308500000     1.1385210000 
 H        0.4144810000     0.3729370000    -0.7528410000 
 H        0.6129030000     0.4811300000     1.0007370000 
 H        0.5646150000    -1.1056440000     0.1998170000 
 H        2.3723790000    -0.3629130000    -2.2005110000 
 H        2.5245650000    -1.8489350000    -1.2542420000 
 H        3.9203780000    -0.7773230000    -1.4451010000 
 H        2.4255120000     1.8272490000    -0.9383740000 
 H        3.8301070000     1.4566660000    -0.1959440000 
 H        2.7581380000    -1.6710840000     1.2924800000 
 H        2.7236710000    -0.0843360000     2.0638020000 
 H        6.7994410000    -0.4905570000     1.1248540000 
*
