! RI PBE def2-SVP def2-SVP/J NBO PAL2
% maxcore 2000
% output
    # printlevel mini
    print[ P_Basis ] 0
    print[ P_SCFInfo ] 1
    print[ P_SCFIterInfo ] 1
    print[ P_OrbEn ] 0
    print[ P_Cartesian ] 0
end
*xyz 0 1
 C        0.8207970000    -0.6756340000    -1.1662650000 
 C        2.2072830000    -0.1095180000    -0.9181640000 
 C        2.5635280000     0.9245830000    -1.9745300000 
 N        2.2405690000     0.4785420000     0.4140320000 
 C        3.5680130000     0.7384420000     0.9389610000 
 C        3.4868430000     1.3081300000     2.3157160000 
 C        4.0874160000     0.7936070000     3.3793500000 
 H        0.7553680000    -1.1231620000    -2.1599430000 
 H        0.0708980000     0.1165290000    -1.0938000000 
 H        0.5709630000    -1.4495910000    -0.4344990000 
 H        2.9355470000    -0.9389040000    -0.9957370000 
 H        1.8546850000     1.7558660000    -1.9386350000 
 H        2.5291100000     0.4787570000    -2.9715060000 
 H        3.5679090000     1.3281260000    -1.8315150000 
 H        1.7530790000    -0.1323930000     1.0589770000 
 H        4.0567700000     1.4703460000     0.2855860000 
 H        4.2133180000    -0.1577660000     0.9458240000 
 H        2.8744010000     2.2015350000     2.4156800000 
 H        4.6939430000    -0.1043170000     3.3066440000 
 H        4.0027500000     1.2520340000     4.3579040000 
*
