! RI PBE def2-SVP def2-SVP/J NBO PAL2
% maxcore 2000
% output
    # printlevel mini
    print[ P_Basis ] 0
    print[ P_SCFInfo ] 1
    print[ P_SCFIterInfo ] 1
    print[ P_OrbEn ] 0
    print[ P_Cartesian ] 0
end
*xyz 0 1
 C        0.8135260000     0.0632530000     0.1981830000 
 C        2.3153390000    -0.1464610000     0.1375240000 
 C        2.6868180000    -1.5487920000     0.5921440000 
 N        2.7613020000     0.0867890000    -1.2289170000 
 C        4.2021010000     0.2039300000    -1.3742570000 
 C        4.5672070000     0.7182420000    -2.6848310000 
 C        4.8636230000     1.1623330000    -3.7594240000 
 H        0.4409580000    -0.0959890000     1.2119060000 
 H        0.3066920000    -0.6361190000    -0.4714700000 
 H        0.5420720000     1.0796620000    -0.1014460000 
 H        2.7930430000     0.5719100000     0.8311180000 
 H        2.2406900000    -2.2899280000    -0.0759330000 
 H        2.3230970000    -1.7280900000     1.6064160000 
 H        3.7676180000    -1.7047750000     0.6010890000 
 H        2.3290380000     0.9293410000    -1.5876370000 
 H        4.6619790000    -0.7815620000    -1.2464050000 
 H        4.6539330000     0.8583470000    -0.6062890000 
 H        5.1281750000     1.5480080000    -4.7153810000 
*
