! RI PBE def2-SVP def2-SVP/J NBO PAL2
% maxcore 2000
% output
    # printlevel mini
    print[ P_Basis ] 0
    print[ P_SCFInfo ] 1
    print[ P_SCFIterInfo ] 1
    print[ P_OrbEn ] 0
    print[ P_Cartesian ] 0
end
*xyz 0 1
 C        1.0968050000     0.1893740000     0.2204210000 
 C        2.5683550000    -0.0508480000    -0.1478550000 
 C        2.8405590000    -1.4841650000    -0.1654010000 
 N        3.0334060000    -2.6175580000    -0.1663420000 
 C        2.9706590000     0.6302580000    -1.4430690000 
 C        2.9391650000     2.1261420000    -1.4056470000 
 C        3.3287550000    -0.0481050000    -2.5260500000 
 H        0.8508620000    -0.3078860000     1.1593320000 
 H        0.4424810000    -0.1994860000    -0.5609600000 
 H        0.9060540000     1.2560160000     0.3383170000 
 H        3.1904170000     0.3681370000     0.6546320000 
 H        3.5508040000     2.5119290000    -0.5831740000 
 H        1.9257310000     2.5087810000    -1.2542560000 
 H        3.3181450000     2.5446040000    -2.3379430000 
 H        3.3609930000    -1.1313310000    -2.5414970000 
 H        3.6077210000     0.4709280000    -3.4359190000 
*
