! RI PBE def2-SVP def2-SVP/J NBO PAL2
% maxcore 2000
% output
    # printlevel mini
    print[ P_Basis ] 0
    print[ P_SCFInfo ] 1
    print[ P_SCFIterInfo ] 1
    print[ P_OrbEn ] 0
    print[ P_Cartesian ] 0
end
*xyz 0 1
 C        1.1488320000    -0.0815540000    -0.1520100000 
 C        2.6091900000    -0.1531660000     0.1555030000 
 C        2.9816890000    -1.1055750000     1.2561520000 
 N        2.4400230000    -0.6409760000     2.5304360000 
 C        3.4984180000     0.6001610000    -0.5101170000 
 C        4.9319610000     0.6571350000    -0.3162400000 
 C        5.7437020000     1.4344400000    -1.0353230000 
 H        0.7879700000    -1.0434370000    -0.5346310000 
 H        0.9281630000     0.6864090000    -0.8944890000 
 H        0.5797200000     0.1260960000     0.7578850000 
 H        4.0644270000    -1.2764850000     1.2715140000 
 H        2.5165820000    -2.0747290000     1.0397050000 
 H        2.9152100000     0.2049710000     2.8210220000 
 H        2.5872410000    -1.3334410000     3.2537320000 
 H        3.1147640000     1.2564210000    -1.2898830000 
 H        5.3677030000     0.0362340000     0.4611720000 
 H        5.3598900000     2.0746680000    -1.8234770000 
 H        6.8123160000     1.4549490000    -0.8602310000 
*
