! RI PBE def2-SVP def2-SVP/J NBO PAL2
% maxcore 2000
% output
    # printlevel mini
    print[ P_Basis ] 0
    print[ P_SCFInfo ] 1
    print[ P_SCFIterInfo ] 1
    print[ P_OrbEn ] 0
    print[ P_Cartesian ] 0
end
*xyz 0 1
 C        0.8650180000    -0.1224440000     0.0787900000 
 C        2.3530970000    -0.0441680000     0.1192520000 
 C        2.9573170000     0.8449490000     1.1666950000 
 N        2.3329210000     0.6588200000     2.4719220000 
 C        3.1061800000    -0.7118610000    -0.7663950000 
 C        4.5221810000    -0.7026260000    -0.8037780000 
 C        5.7248390000    -0.7198240000    -0.8707920000 
 H        0.4820420000    -0.5427960000     1.0135460000 
 H        0.5159830000    -0.7429780000    -0.7469920000 
 H        0.4227620000     0.8749720000    -0.0302290000 
 H        2.8920790000     1.8841710000     0.7985690000 
 H        4.0202870000     0.6148500000     1.2549750000 
 H        1.4296750000     1.1142610000     2.5109520000 
 H        2.9036540000     1.0860330000     3.1894600000 
 H        2.6162020000    -1.3110580000    -1.5297930000 
 H        6.7873330000    -0.7338700000    -0.9254720000 
*
