! RI PBE def2-SVP def2-SVP/J NBO PAL2
% maxcore 2000
% output
    # printlevel mini
    print[ P_Basis ] 0
    print[ P_SCFInfo ] 1
    print[ P_SCFIterInfo ] 1
    print[ P_OrbEn ] 0
    print[ P_Cartesian ] 0
end
*xyz 0 1
 C        1.0443310000    -0.1673090000     0.0341200000 
 C        2.5067610000     0.1475460000     0.3370820000 
 C        2.8183750000     1.6252850000     0.0816830000 
 N        2.6650240000     1.9466310000    -1.3289730000 
 C        2.9106090000    -0.2682470000     1.7313510000 
 C        2.2551310000     0.4275740000     2.8849400000 
 C        3.8196000000    -1.2196050000     1.9249070000 
 H        0.8023230000     0.1422510000    -0.9833910000 
 H        0.3745380000     0.3697840000     0.7113090000 
 H        0.8439740000    -1.2359440000     0.1372400000 
 H        3.1274730000    -0.4328420000    -0.3575840000 
 H        3.8216440000     1.8462200000     0.4780260000 
 H        2.1113110000     2.2461100000     0.6418610000 
 H        3.3987140000     1.5064750000    -1.8715170000 
 H        2.7448180000     2.9436890000    -1.4807110000 
 H        1.1684690000     0.3049150000     2.8613470000 
 H        2.4510410000     1.5041690000     2.8635940000 
 H        2.6190350000     0.0377350000     3.8362570000 
 H        4.2963350000    -1.7239520000     1.0907700000 
 H        4.1151640000    -1.5295150000     2.9217780000 
*
