! RI PBE def2-SVP def2-SVP/J NBO PAL2
% maxcore 2000
% output
    # printlevel mini
    print[ P_Basis ] 0
    print[ P_SCFInfo ] 1
    print[ P_SCFIterInfo ] 1
    print[ P_OrbEn ] 0
    print[ P_Cartesian ] 0
end
*xyz 0 1
 C        1.0208810000     0.2363570000    -0.2309580000 
 C        2.4356070000     0.3207280000     0.3202000000 
 C        2.6302840000     1.5753110000     1.1644320000 
 N        2.4699340000     2.7819810000     0.3638450000 
 C        2.7886950000    -0.9405720000     1.1151170000 
 C        4.2318030000    -1.0605370000     1.4771510000 
 C        4.7094050000    -1.2343920000     2.7018840000 
 H        0.7514740000     1.1619060000    -0.7409900000 
 H        0.3027920000     0.0782720000     0.5806740000 
 H        0.9171180000    -0.5949130000    -0.9331850000 
 H        3.1330410000     0.3845550000    -0.5285300000 
 H        3.6015900000     1.5141230000     1.6761450000 
 H        1.8634640000     1.5878930000     1.9484540000 
 H        3.2469740000     2.8796790000    -0.2791880000 
 H        2.4767210000     3.6037750000     0.9542000000 
 H        2.5085270000    -1.8091000000     0.5054520000 
 H        2.1728470000    -0.9873780000     2.0210890000 
 H        4.9335840000    -1.0091090000     0.6446870000 
 H        4.0503770000    -1.2918590000     3.5631230000 
 H        5.7726810000    -1.3303300000     2.8896100000 
*
