! RI PBE def2-SVP def2-SVP/J NBO PAL2
% maxcore 2000
% output
    # printlevel mini
    print[ P_Basis ] 0
    print[ P_SCFInfo ] 1
    print[ P_SCFIterInfo ] 1
    print[ P_OrbEn ] 0
    print[ P_Cartesian ] 0
end
*xyz 0 1
 C        1.1432790000     0.1388430000     0.3260180000 
 C        2.6550670000     0.2895630000     0.3424960000 
 C        3.2264200000     0.9019800000    -0.9392080000 
 N        2.7567840000     2.2541210000    -1.2213600000 
 C        4.7636060000     0.8568880000    -0.9711530000 
 C        5.2856110000     1.1176840000    -2.3766870000 
 C        5.4064430000     1.8180540000     0.0222260000 
 H        0.7807210000    -0.3331940000     1.2418520000 
 H        0.8173490000    -0.4796450000    -0.5158730000 
 H        0.6417710000     1.1064580000     0.2415820000 
 H        3.1153940000    -0.6930010000     0.4975220000 
 H        2.9507390000     0.9055520000     1.1999690000 
 H        2.8817140000     0.2806210000    -1.7767350000 
 H        2.8653630000     2.8455700000    -0.4053270000 
 H        1.7725450000     2.2524440000    -1.4533850000 
 H        5.0479390000    -0.1634530000    -0.6835700000 
 H        4.9662320000     2.1037490000    -2.7207840000 
 H        4.9058320000     0.3757970000    -3.0846880000 
 H        6.3777990000     1.0785830000    -2.4041870000 
 H        5.1918880000     2.8565110000    -0.2460160000 
 H        6.4929750000     1.7022780000     0.0160240000 
 H        5.0664180000     1.6495950000     1.0469640000 
*
