! RI PBE def2-SVP def2-SVP/J NBO PAL2
% maxcore 2000
% output
    # printlevel mini
    print[ P_Basis ] 0
    print[ P_SCFInfo ] 1
    print[ P_SCFIterInfo ] 1
    print[ P_OrbEn ] 0
    print[ P_Cartesian ] 0
end
*xyz 0 1
 C        1.1183510000    -0.0818930000     0.1825790000 
 C        2.5065790000     0.1910840000     0.7373020000 
 C        3.3930630000     0.9853890000    -0.2198000000 
 N        2.8855310000     2.3141230000    -0.5605070000 
 C        4.8296940000     1.1416520000     0.2332580000 
 C        5.7667380000     1.6629610000    -0.8107770000 
 C        5.2418250000     0.8537000000     1.4640350000 
 H        0.5312430000    -0.6899690000     0.8740700000 
 H        1.1705950000    -0.6216580000    -0.7678540000 
 H        0.5579750000     0.8411970000     0.0119310000 
 H        2.9974790000    -0.7604230000     0.9658090000 
 H        2.4221490000     0.7348920000     1.6853890000 
 H        3.4286960000     0.4289660000    -1.1684880000 
 H        2.7705890000     2.8644480000     0.2836140000 
 H        1.9800860000     2.2506140000    -1.0076900000 
 H        5.8415770000     0.9570420000    -1.6453730000 
 H        6.7674980000     1.8225070000    -0.4073810000 
 H        5.3902360000     2.6007410000    -1.2249630000 
 H        4.5763960000     0.4702930000     2.2276140000 
 H        6.2792080000     0.9927430000     1.7489300000 
*
