! RI PBE def2-SVP def2-SVP/J NBO PAL2
% maxcore 2000
% output
    # printlevel mini
    print[ P_Basis ] 0
    print[ P_SCFInfo ] 1
    print[ P_SCFIterInfo ] 1
    print[ P_OrbEn ] 0
    print[ P_Cartesian ] 0
end
*xyz 0 1
 C        2.8551620000     0.7984230000    -1.0975830000 
 C        2.4716950000    -0.0840900000     0.0761380000 
 C        3.0115630000     0.4053660000     1.4288650000 
 N        2.5390760000    -0.3628640000     2.5780380000 
 C        4.4726360000     0.4340140000     1.4317130000 
 C        5.6750330000     0.4328310000     1.4134520000 
 C        7.1260180000     0.4442740000     1.4092250000 
 H        2.4306700000     0.4203430000    -2.0301220000 
 H        3.9400240000     0.8445460000    -1.2131680000 
 H        2.4915840000     1.8206820000    -0.9580390000 
 H        2.8269230000    -1.1077600000    -0.0849030000 
 H        1.3801270000    -0.1371220000     0.1612550000 
 H        2.6608070000     1.4370640000     1.5710360000 
 H        2.9341950000    -1.2957640000     2.5497340000 
 H        1.5313390000    -0.4619230000     2.5281850000 
 H        7.5257610000    -0.2106660000     0.6309490000 
 H        7.5208920000     0.1042350000     2.3698820000 
 H        7.5086750000     1.4521280000     1.2291210000 
*
