! RI PBE def2-SVP def2-SVP/J NBO PAL2
% maxcore 2000
% output
    # printlevel mini
    print[ P_Basis ] 0
    print[ P_SCFInfo ] 1
    print[ P_SCFIterInfo ] 1
    print[ P_OrbEn ] 0
    print[ P_Cartesian ] 0
end
*xyz 0 1
 C        2.8014840000    -0.5670250000    -1.5400600000 
 C        2.3868610000    -0.0334320000    -0.1789010000 
 C        2.8826850000    -0.8489150000     1.0217090000 
 N        2.3816240000    -2.2161320000     1.0854340000 
 C        4.4083840000    -0.8956450000     1.1292230000 
 C        5.0447910000     0.4466930000     1.2568350000 
 C        6.0046340000     0.9220400000     0.4751500000 
 H        2.3552150000     0.0265830000    -2.3407920000 
 H        2.4763640000    -1.6009980000    -1.6874530000 
 H        3.8848600000    -0.5326870000    -1.6765690000 
 H        1.2927020000     0.0117280000    -0.1238130000 
 H        2.7403910000     0.9978450000    -0.0716240000 
 H        2.5131710000    -0.3429520000     1.9231940000 
 H        2.7331630000    -2.7587930000     0.3047380000 
 H        1.3706590000    -2.2271450000     1.0168030000 
 H        4.8304060000    -1.4267210000     0.2686360000 
 H        4.6426400000    -1.4990430000     2.0135160000 
 H        4.6802840000     1.0689670000     2.0739320000 
 H        6.4033490000     0.3403020000    -0.3507360000 
 H        6.4334540000     1.9047400000     0.6344760000 
*
