! RI PBE def2-SVP def2-SVP/J NBO PAL2
% maxcore 2000
% output
    # printlevel mini
    print[ P_Basis ] 0
    print[ P_SCFInfo ] 1
    print[ P_SCFIterInfo ] 1
    print[ P_OrbEn ] 0
    print[ P_Cartesian ] 0
end
*xyz 0 1
 C        3.0021600000    -1.6749880000    -0.1260610000 
 C        3.1976540000    -0.4800970000     0.7905370000 
 C        3.7831170000     0.7439880000     0.0822800000 
 N        3.8104360000     1.8924440000     0.9806390000 
 C        2.5151090000     2.4738980000     1.2643840000 
 C        5.1830040000     0.4760920000    -0.3743340000 
 C        5.5884540000     0.4896190000    -1.6358860000 
 H        2.5703310000    -2.5179080000     0.4177570000 
 H        3.9472860000    -2.0056430000    -0.5624280000 
 H        2.3262330000    -1.4329500000    -0.9513550000 
 H        3.8566430000    -0.7365530000     1.6267120000 
 H        2.2354570000    -0.2039200000     1.2311080000 
 H        3.1614240000     0.9476320000    -0.8107650000 
 H        4.4099630000     2.5987790000     0.5737380000 
 H        1.9336480000     1.8254870000     1.9230420000 
 H        1.9082340000     2.6672690000     0.3636670000 
 H        2.6548750000     3.4203230000     1.7899790000 
 H        5.8947390000     0.2668200000     0.4230670000 
 H        4.9000520000     0.6999850000    -2.4489130000 
 H        6.6191100000     0.2868120000    -1.9042570000 
*
