! RI PBE def2-SVP def2-SVP/J NBO PAL2
% maxcore 2000
% output
    # printlevel mini
    print[ P_Basis ] 0
    print[ P_SCFInfo ] 1
    print[ P_SCFIterInfo ] 1
    print[ P_OrbEn ] 0
    print[ P_Cartesian ] 0
end
*xyz 0 1
 C        1.0105920000     0.3231680000    -0.3330690000 
 C        2.4733860000     0.1308080000     0.0270310000 
 C        2.8815950000     0.9133210000     1.2609420000 
 N        4.2726070000     0.6835670000     1.5920880000 
 C        4.8036390000     1.5134690000     2.6629730000 
 C        4.2472350000     1.0785200000     4.0098110000 
 C        6.3187580000     1.4191410000     2.6514010000 
 H        0.7423040000    -0.2456060000    -1.2258810000 
 H        0.7837500000     1.3747640000    -0.5296490000 
 H        0.3574120000    -0.0086180000     0.4788070000 
 H        3.1025570000     0.4390320000    -0.8174770000 
 H        2.6871350000    -0.9285390000     0.1993480000 
 H        2.2590540000     0.5946660000     2.1036750000 
 H        2.6609430000     1.9861890000     1.1021380000 
 H        4.8331760000     0.8273080000     0.7597700000 
 H        4.5241940000     2.5736180000     2.5092460000 
 H        4.5062410000     0.0339790000     4.2020820000 
 H        3.1604830000     1.1728550000     4.0520170000 
 H        4.6618660000     1.6944680000     4.8114580000 
 H        6.6343630000     0.3836690000     2.8040650000 
 H        6.7537730000     2.0334590000     3.4423130000 
 H        6.7305390000     1.7632420000     1.6978200000 
*
