! RI PBE def2-SVP def2-SVP/J NBO PAL2
% maxcore 2000
% output
    # printlevel mini
    print[ P_Basis ] 0
    print[ P_SCFInfo ] 1
    print[ P_SCFIterInfo ] 1
    print[ P_OrbEn ] 0
    print[ P_Cartesian ] 0
end
*xyz 0 1
 C        0.8824910000    -0.5160070000    -0.1765990000 
 C        2.3905810000    -0.3392160000    -0.2137360000 
 C        2.8794870000     0.2339480000    -1.5300430000 
 N        4.3147520000     0.4225660000    -1.5291360000 
 C        4.8346710000     0.9244300000    -2.7854920000 
 C        6.3122020000     1.1200750000    -2.7131060000 
 C        7.1830180000     0.5872200000    -3.5583580000 
 H        0.5543180000    -0.9341580000     0.7772860000 
 H        0.5408010000    -1.1886670000    -0.9682510000 
 H        0.3694400000     0.4401730000    -0.3124210000 
 H        2.8775140000    -1.3069900000    -0.0414920000 
 H        2.7181830000     0.3188130000     0.5967080000 
 H        2.4115620000     1.2121240000    -1.6966710000 
 H        2.5383350000    -0.4141460000    -2.3591630000 
 H        4.7755270000    -0.4517300000    -1.3028410000 
 H        4.3537670000     1.8936220000    -2.9740200000 
 H        4.5882300000     0.2806410000    -3.6482990000 
 H        6.6611750000     1.7406530000    -1.8907290000 
 H        6.8584330000    -0.0449560000    -4.3796040000 
 H        8.2480020000     0.7672860000    -3.4674130000 
*
