! RI PBE def2-SVP def2-SVP/J NBO PAL2
% maxcore 2000
% output
    # printlevel mini
    print[ P_Basis ] 0
    print[ P_SCFInfo ] 1
    print[ P_SCFIterInfo ] 1
    print[ P_OrbEn ] 0
    print[ P_Cartesian ] 0
end
*xyz 0 1
 C        1.0928290000     0.3366210000     0.0686150000 
 C        2.5825590000     0.2880940000     0.0384800000 
 C        3.2706570000    -0.8417510000    -0.1386580000 
 N        4.6471980000    -0.9644930000    -0.1869980000 
 C        5.4480960000     0.2254120000    -0.0596250000 
 C        5.2726100000    -2.1865200000    -0.3413560000 
 N        4.7966140000    -3.3565750000    -0.4407710000 
 H        0.6974370000     0.9869200000    -0.7184960000 
 H        0.7249950000     0.7355170000     1.0195410000 
 H        0.6574460000    -0.6555920000    -0.0682140000 
 H        3.1057400000     1.2300500000     0.1692900000 
 H        2.7339890000    -1.7745850000    -0.2687330000 
 H        5.2087500000     0.9441560000    -0.8499580000 
 H        6.5013910000    -0.0397270000    -0.1373610000 
 H        5.2813280000     0.7107870000     0.9077090000 
 H        6.3574460000    -2.0753010000    -0.3804970000 
 H        3.7814270000    -3.3882050000    -0.3881980000 
*
