! RI PBE def2-SVP def2-SVP/J NBO PAL2
% maxcore 2000
% output
    # printlevel mini
    print[ P_Basis ] 0
    print[ P_SCFInfo ] 1
    print[ P_SCFIterInfo ] 1
    print[ P_OrbEn ] 0
    print[ P_Cartesian ] 0
end
*xyz 0 1
 C        1.2757660000     0.5217270000     0.3024820000 
 C        2.6779490000     0.0292380000     0.2015450000 
 C        3.0559260000    -1.2062880000     0.5248890000 
 N        4.3479390000    -1.6893800000     0.4414780000 
 C        4.7704700000    -2.9622800000     0.7675670000 
 C        6.2447980000    -3.1828490000     0.5681740000 
 N        4.0636870000    -3.9264370000     1.2020630000 
 H        1.1984280000     1.3783930000     0.9800540000 
 H        0.6071390000    -0.2582050000     0.6731550000 
 H        0.8956270000     0.8542300000    -0.6690630000 
 H        3.4262260000     0.7330360000    -0.1595460000 
 H        2.3250730000    -1.9212820000     0.8863390000 
 H        5.0503140000    -1.0506520000     0.1104410000 
 H        6.7632230000    -2.2984050000     0.1932460000 
 H        6.3951980000    -4.0016690000    -0.1360600000 
 H        6.6968280000    -3.4783270000     1.5154850000 
 H        3.0821110000    -3.6844580000     1.3044500000 
*
