! RI PBE def2-SVP def2-SVP/J NBO PAL2
% maxcore 2000
% output
    # printlevel mini
    print[ P_Basis ] 0
    print[ P_SCFInfo ] 1
    print[ P_SCFIterInfo ] 1
    print[ P_OrbEn ] 0
    print[ P_Cartesian ] 0
end
*xyz 0 1
 C        1.0743820000    -0.4805310000     0.2913980000 
 C        2.4825150000    -0.7024580000    -0.2277720000 
 C        2.6104290000    -2.0589770000    -0.8999250000 
 N        2.7925680000     0.3704850000    -1.1720540000 
 C        4.1725900000     0.4766500000    -1.5794820000 
 C        5.1280460000     0.6833470000    -0.4766660000 
 N        5.8357600000     0.8530410000     0.4140450000 
 H        0.8030270000    -1.2556980000     1.0102070000 
 H        0.3553780000    -0.5042470000    -0.5316520000 
 H        0.9854280000     0.4854700000     0.7968490000 
 H        3.1742300000    -0.6763560000     0.6311750000 
 H        1.9474850000    -2.1164940000    -1.7669570000 
 H        2.3390960000    -2.8518130000    -0.1999110000 
 H        3.6307280000    -2.2621880000    -1.2326970000 
 H        2.4873570000     1.2553780000    -0.7857520000 
 H        4.2796770000     1.3105940000    -2.2777960000 
 H        4.4752030000    -0.4219940000    -2.1226110000 
*
