! RI PBE def2-SVP def2-SVP/J NBO PAL2
% maxcore 2000
% output
    # printlevel mini
    print[ P_Basis ] 0
    print[ P_SCFInfo ] 1
    print[ P_SCFIterInfo ] 1
    print[ P_OrbEn ] 0
    print[ P_Cartesian ] 0
end
*xyz 0 1
 C        1.0044930000     0.2997310000     0.0717430000 
 C        2.4102320000    -0.2736190000     0.2069230000 
 C        2.5620180000    -1.0548420000     1.5126580000 
 N        1.7470400000    -2.2614630000     1.5282730000 
 C        2.7732620000    -1.0868010000    -1.0324920000 
 C        4.2039200000    -1.5885680000    -1.0768180000 
 N        4.4794480000    -2.2036050000    -2.3695340000 
 H        0.7281890000     0.8932080000     0.9482490000 
 H        0.2615890000    -0.4946730000    -0.0491620000 
 H        0.9274270000     0.9447940000    -0.8066750000 
 H        3.1088410000     0.5713830000     0.2761080000 
 H        2.3431890000    -0.3682620000     2.3467480000 
 H        3.6053260000    -1.3594530000     1.6315110000 
 H        0.7644880000    -2.0295920000     1.6019940000 
 H        1.9720550000    -2.8322640000     2.3323630000 
 H        2.6044360000    -0.4734610000    -1.9239340000 
 H        2.0931810000    -1.9433660000    -1.1013040000 
 H        4.3818440000    -2.2675750000    -0.2297000000 
 H        4.8898580000    -0.7418570000    -0.9557560000 
 H        3.8636230000    -2.9965050000    -2.5095890000 
 H        5.4252420000    -2.5640100000    -2.3976060000 
*
