! RI PBE def2-SVP def2-SVP/J NBO PAL2
% maxcore 2000
% output
    # printlevel mini
    print[ P_Basis ] 0
    print[ P_SCFInfo ] 1
    print[ P_SCFIterInfo ] 1
    print[ P_OrbEn ] 0
    print[ P_Cartesian ] 0
end
*xyz 0 1
 C        0.7896460000     0.1794910000     0.2285450000 
 C        2.1163390000    -0.1895130000    -0.4126640000 
 C        2.7563790000    -1.4579240000     0.1574460000 
 N        1.9353400000    -2.6583210000     0.0396140000 
 C        4.1150910000    -1.7125060000    -0.4825230000 
 C        4.9359470000    -2.7821900000     0.2124890000 
 N        6.2147520000    -2.9599170000    -0.4671630000 
 H        0.3949250000     1.1099200000    -0.1853190000 
 H        0.8982190000     0.3188390000     1.3085230000 
 H        0.0322010000    -0.5918750000     0.0662790000 
 H        2.8209460000     0.6408510000    -0.2921340000 
 H        1.9825790000    -0.3223050000    -1.4942570000 
 H        2.9139660000    -1.2971880000     1.2332980000 
 H        1.6898880000    -2.8157250000    -0.9325870000 
 H        1.0671640000    -2.5557030000     0.5494600000 
 H        4.6940010000    -0.7843310000    -0.5055020000 
 H        3.9574400000    -2.0007720000    -1.5322270000 
 H        4.3360880000    -3.6981790000     0.2889310000 
 H        5.1463160000    -2.4551370000     1.2368930000 
 H        6.0610880000    -3.3213420000    -1.4017490000 
 H        6.7772860000    -3.6490620000     0.0165360000 
*
