! RI PBE def2-SVP def2-SVP/J NBO PAL2
% maxcore 2000
% output
    # printlevel mini
    print[ P_Basis ] 0
    print[ P_SCFInfo ] 1
    print[ P_SCFIterInfo ] 1
    print[ P_OrbEn ] 0
    print[ P_Cartesian ] 0
end
*xyz 0 1
 C        0.9246290000     0.1073530000    -0.0366890000 
 C        2.4409130000     0.0431720000     0.0226560000 
 C        3.0672170000    -0.8583400000    -1.0407630000 
 N        2.7418480000    -0.4873130000    -2.4144560000 
 C        4.5959620000    -0.9114400000    -0.8968880000 
 C        5.1772190000    -2.1506320000    -1.5633080000 
 N        5.1589690000     0.3395040000    -1.3994880000 
 H        0.5235130000     0.7317660000     0.7647890000 
 H        0.4795830000    -0.8874890000     0.0669570000 
 H        0.5741530000     0.5308750000    -0.9814180000 
 H        2.7484790000    -0.3200480000     1.0102090000 
 H        2.8717630000     1.0447790000    -0.0848590000 
 H        2.6901940000    -1.8780940000    -0.8922570000 
 H        2.8374570000     0.5165500000    -2.5232090000 
 H        1.7828030000    -0.7187640000    -2.6347020000 
 H        4.8192350000    -0.9500150000     0.1754780000 
 H        4.9031240000    -2.1678000000    -2.6215810000 
 H        4.8025250000    -3.0688310000    -1.1009090000 
 H        6.2679600000    -2.1572930000    -1.4871520000 
 H        5.1627010000     0.3109560000    -2.4136780000 
 H        6.1245530000     0.4301330000    -1.1100210000 
*
