! RI PBE def2-SVP def2-SVP/J NBO PAL2
% maxcore 2000
% output
    # printlevel mini
    print[ P_Basis ] 0
    print[ P_SCFInfo ] 1
    print[ P_SCFIterInfo ] 1
    print[ P_OrbEn ] 0
    print[ P_Cartesian ] 0
end
*xyz 0 1
 C        1.4413780000     0.9782290000    -0.5175330000 
 C        2.7184900000     1.2311140000     0.2645740000 
 C        3.7281680000     0.1030360000     0.0900510000 
 N        4.9703310000     0.2921240000     0.8020110000 
 C        5.8891440000     1.2965290000     0.3385570000 
 C        5.1510750000    -0.2671950000     2.0323750000 
 N        6.0722270000    -0.0643710000     2.8871530000 
 H        0.7238610000     1.7896640000    -0.3819460000 
 H        0.9573890000     0.0515460000    -0.1963060000 
 H        1.6425720000     0.8901730000    -1.5889800000 
 H        2.4953980000     1.3417120000     1.3308400000 
 H        3.1705840000     2.1754880000    -0.0568530000 
 H        3.9484400000    -0.0301790000    -0.9765580000 
 H        3.2863870000    -0.8372500000     0.4341060000 
 H        5.6992130000     1.4979300000    -0.7162830000 
 H        6.9198300000     0.9420520000     0.4331870000 
 H        5.8026890000     2.2416740000     0.8902500000 
 H        4.3827160000    -1.0065160000     2.2716170000 
 H        6.7256180000     0.6555310000     2.5840260000 
*
