! RI PBE def2-SVP def2-SVP/J NBO PAL2
% maxcore 2000
% output
    # printlevel mini
    print[ P_Basis ] 0
    print[ P_SCFInfo ] 1
    print[ P_SCFIterInfo ] 1
    print[ P_OrbEn ] 0
    print[ P_Cartesian ] 0
end
*xyz 0 1
 C        2.0051840000     1.7856880000    -0.1753650000 
 C        1.9497320000     0.2670760000    -0.1345480000 
 C        3.3134650000    -0.3994170000    -0.1964830000 
 N        4.1027500000    -0.0893820000     0.9679380000 
 C        5.3940630000    -0.5195810000     1.1286510000 
 C        5.9752440000    -0.2238690000     2.4799770000 
 N        6.1144600000    -1.0990270000     0.2488500000 
 H        1.0030290000     2.2172260000    -0.1315760000 
 H        2.4784560000     2.1329590000    -1.0976350000 
 H        2.5808850000     2.1918010000     0.6589370000 
 H        1.3567420000    -0.1035580000    -0.9755680000 
 H        1.4277710000    -0.0683050000     0.7702910000 
 H        3.8450310000    -0.0446130000    -1.0881270000 
 H        3.1910930000    -1.4863930000    -0.3109390000 
 H        3.5953700000     0.1395500000     1.8060930000 
 H        5.9574270000     0.8500600000     2.6839250000 
 H        7.0024750000    -0.5781790000     2.5095520000 
 H        5.4040170000    -0.7232100000     3.2684480000 
 H        5.6014360000    -1.2516250000    -0.6170100000 
*
