! RI PBE def2-SVP def2-SVP/J NBO PAL2
% maxcore 2000
% output
    # printlevel mini
    print[ P_Basis ] 0
    print[ P_SCFInfo ] 1
    print[ P_SCFIterInfo ] 1
    print[ P_OrbEn ] 0
    print[ P_Cartesian ] 0
end
*xyz 0 1
 C        0.4107690000     0.2766370000     0.0313560000 
 C        1.9287600000     0.2998850000    -0.0131180000 
 C        2.5078660000    -0.9422830000    -0.6611390000 
 N        3.9578940000    -0.8692570000    -0.7231420000 
 C        4.5893650000    -2.0243940000    -1.3100520000 
 C        4.3519690000    -3.2905140000    -0.5935230000 
 N        4.1496940000    -4.2504030000     0.0070170000 
 H        0.0154980000     1.1756860000     0.5080770000 
 H        0.0421350000    -0.5860440000     0.5926020000 
 H       -0.0131290000     0.2220720000    -0.9750620000 
 H        2.3239050000     0.3883510000     1.0062140000 
 H        2.2816900000     1.1795070000    -0.5598430000 
 H        2.1347750000    -1.0269930000    -1.6889570000 
 H        2.1542970000    -1.8372590000    -0.1228300000 
 H        4.3363560000    -0.7006920000     0.2014640000 
 H        5.6697260000    -1.8670640000    -1.3653350000 
 H        4.2347580000    -2.1487450000    -2.3379280000 
*
