! RI PBE def2-SVP def2-SVP/J NBO PAL2
% maxcore 2000
% output
    # printlevel mini
    print[ P_Basis ] 0
    print[ P_SCFInfo ] 1
    print[ P_SCFIterInfo ] 1
    print[ P_OrbEn ] 0
    print[ P_Cartesian ] 0
end
*xyz 0 1
 C        1.2514360000     0.5111600000    -0.2062960000 
 C        2.6713490000     0.1772870000     0.0985840000 
 C        3.0540010000    -0.5213170000     1.1662730000 
 N        4.3534660000    -0.8542150000     1.4895610000 
 C        4.7212760000    -1.5721260000     2.5895820000 
 N        5.9268900000    -1.8526440000     2.8429710000 
 C        6.1991110000    -2.6142200000     4.0297540000 
 H        1.0924530000     1.5936080000    -0.2541330000 
 H        0.5777230000     0.1100170000     0.5544030000 
 H        0.9399420000     0.1047900000    -1.1743300000 
 H        3.4281070000     0.5305520000    -0.5991080000 
 H        2.3193910000    -0.8862620000     1.8790230000 
 H        5.1050810000    -0.5581220000     0.8859140000 
 H        3.8751930000    -1.8761930000     3.2213840000 
 H        6.7178950000    -3.5417090000     3.7679600000 
 H        5.2969520000    -2.8766460000     4.6038950000 
 H        6.8704450000    -2.0536380000     4.6877620000 
*
