! RI PBE def2-SVP def2-SVP/J NBO PAL2
% maxcore 2000
% output
    # printlevel mini
    print[ P_Basis ] 0
    print[ P_SCFInfo ] 1
    print[ P_SCFIterInfo ] 1
    print[ P_OrbEn ] 0
    print[ P_Cartesian ] 0
end
*xyz 0 1
 C        1.4300660000    -0.1391960000    -0.4490050000 
 C        2.7389370000     0.2447890000     0.2311020000 
 C        2.6113850000     1.5425430000     1.0070230000 
 N        3.2471320000    -0.8251080000     1.0894000000 
 C        3.9064160000    -1.9420780000     0.4698920000 
 N        2.5452540000    -1.0101030000     2.2069630000 
 C        2.6277310000    -2.0923040000     2.8791960000 
 H        1.1010550000     0.6491770000    -1.1301980000 
 H        0.6505410000    -0.2923970000     0.3011920000 
 H        1.5357470000    -1.0606820000    -1.0271420000 
 H        3.5070590000     0.3809250000    -0.5373730000 
 H        1.8633180000     1.4470140000     1.7943470000 
 H        2.3103830000     2.3491850000     0.3347860000 
 H        3.5621270000     1.8115940000     1.4710130000 
 H        3.2151880000    -2.7721310000     0.2557750000 
 H        4.6993810000    -2.3278870000     1.1182110000 
 H        4.3627880000    -1.6132450000    -0.4627790000 
 H        2.0549130000    -2.1395720000     3.7976850000 
 H        3.2395790000    -2.9513220000     2.6072190000 
*
