! RI PBE def2-SVP def2-SVP/J NBO PAL2
% maxcore 2000
% output
    # printlevel mini
    print[ P_Basis ] 0
    print[ P_SCFInfo ] 1
    print[ P_SCFIterInfo ] 1
    print[ P_OrbEn ] 0
    print[ P_Cartesian ] 0
end
*xyz 0 1
 C        3.1872150000    -1.3748600000    -0.3682270000 
 C        2.6903140000    -0.1405460000    -0.4081860000 
 C        3.3696830000     0.9948080000     0.1828440000 
 N        2.8578120000     2.1572010000     0.1208040000 
 N        3.6663080000     3.1318410000     0.7523520000 
 C        3.5195090000     4.4213440000     0.0667800000 
 C        2.8199570000     4.1809570000     1.3332270000 
 H        2.6660290000    -2.2124230000    -0.8152200000 
 H        4.1357210000    -1.5847050000     0.1158330000 
 H        1.7415090000     0.0687790000    -0.8924950000 
 H        4.3293340000     0.8347620000     0.6824090000 
 H        2.9247490000     4.4101040000    -0.8391910000 
 H        4.4266520000     5.0128870000     0.0361110000 
 H        1.7512990000     4.0068590000     1.2851860000 
 H        3.1965890000     4.5901920000     2.2629830000 
*
