! RI PBE def2-SVP def2-SVP/J NBO PAL2
% maxcore 2000
% output
    # printlevel mini
    print[ P_Basis ] 0
    print[ P_SCFInfo ] 1
    print[ P_SCFIterInfo ] 1
    print[ P_OrbEn ] 0
    print[ P_Cartesian ] 0
end
*xyz 0 1
 C        3.1361330000    -0.1980890000    -0.8413110000 
 C        2.4865850000     0.4627090000     0.1097500000 
 C        3.1197580000     1.3671630000     1.0854880000 
 N        2.4827620000     2.1633110000     1.8484690000 
 N        4.5157770000     1.3555760000     1.0923710000 
 C        5.2130370000     1.7289770000     2.2938790000 
 C        5.2203900000     0.3206630000     1.8283050000 
 H        2.6098210000    -0.8393860000    -1.5383480000 
 H        4.2093570000    -0.1023090000    -0.9557970000 
 H        1.4071580000     0.3732310000     0.1977180000 
 H        1.4832280000     2.0979680000     1.6701420000 
 H        4.5979030000     1.9774340000     3.1517590000 
 H        6.0910020000     2.3477850000     2.1460290000 
 H        4.6190090000    -0.3894260000     2.3883090000 
 H        6.0949900000    -0.0951960000     1.3395470000 
*
