! RI PBE def2-SVP def2-SVP/J NBO PAL2
% maxcore 2000
% output
    # printlevel mini
    print[ P_Basis ] 0
    print[ P_SCFInfo ] 1
    print[ P_SCFIterInfo ] 1
    print[ P_OrbEn ] 0
    print[ P_Cartesian ] 0
end
*xyz 0 1
 C        0.9973580000    -0.0228680000    -0.0017210000 
 C        2.4639910000    -0.1754160000     0.2315090000 
 C        3.2728630000    -0.8778330000    -0.8189790000 
 N        2.9338400000     0.3033760000     1.3125020000 
 N        4.3350720000     0.1131470000     1.4502270000 
 C        4.9161430000     1.2312650000     2.1960310000 
 C        4.6760440000    -0.0536530000     2.8645280000 
 H        0.5284580000    -1.0044850000    -0.1238010000 
 H        0.8161290000     0.5304690000    -0.9287130000 
 H        0.5287480000     0.5010600000     0.8299400000 
 H        2.6417800000    -1.1936840000    -1.6503530000 
 H        3.7732250000    -1.7513140000    -0.3968910000 
 H        4.0617430000    -0.2242620000    -1.1957560000 
 H        4.2389040000     2.0444520000     2.4316420000 
 H        5.9124110000     1.5157220000     1.8782540000 
 H        3.8373640000    -0.1045100000     3.5497070000 
 H        5.4902070000    -0.7434760000     3.0535630000 
*
