! RI PBE def2-SVP def2-SVP/J NBO PAL2
% maxcore 2000
% output
    # printlevel mini
    print[ P_Basis ] 0
    print[ P_SCFInfo ] 1
    print[ P_SCFIterInfo ] 1
    print[ P_OrbEn ] 0
    print[ P_Cartesian ] 0
end
*xyz 0 1
 C        0.9387260000     0.0650000000    -0.0806210000 
 C        2.4589960000     0.0025080000    -0.0292670000 
 C        3.0244680000     0.1783440000    -1.3796410000 
 N        3.4832750000     0.3483010000    -2.4207800000 
 N        2.9629570000     0.9490580000     0.9494480000 
 C        4.3348010000     1.4028180000     0.8618990000 
 C        3.2150560000     2.3164550000     0.5400390000 
 H        0.5408100000    -0.6884430000    -0.7614700000 
 H        0.6083360000     1.0480440000    -0.4200810000 
 H        0.5456650000    -0.1098970000     0.9210530000 
 H        2.7662170000    -0.9943130000     0.3061510000 
 H        4.9372390000     1.0614540000     0.0241480000 
 H        4.8556730000     1.4815410000     1.8093640000 
 H        3.0850500000     2.5724210000    -0.5085140000 
 H        2.9022400000     3.0762190000     1.2470630000 
*
