! RI PBE def2-SVP def2-SVP/J NBO PAL2
% maxcore 2000
% output
    # printlevel mini
    print[ P_Basis ] 0
    print[ P_SCFInfo ] 1
    print[ P_SCFIterInfo ] 1
    print[ P_OrbEn ] 0
    print[ P_Cartesian ] 0
end
*xyz 0 1
 C        1.5161030000     0.5715750000    -0.5768720000 
 C        2.9060790000    -0.0068730000    -0.3334380000 
 C        2.8646270000    -1.2221020000     0.5252080000 
 N        3.4800500000    -1.2704770000     1.6291400000 
 N        3.3026620000    -2.5150660000     2.2922680000 
 C        4.5137400000    -2.8569500000     3.0428170000 
 C        3.3417510000    -2.3167960000     3.7431640000 
 H        1.5666550000     1.4341490000    -1.2441430000 
 H        1.0582420000     0.8949790000     0.3604400000 
 H        0.8526960000    -0.1661840000    -1.0356420000 
 H        3.5605080000     0.7302260000     0.1363060000 
 H        3.3561800000    -0.2797870000    -1.2957010000 
 H        2.2750320000    -2.0819470000     0.1889840000 
 H        5.3589570000    -2.1920840000     2.9067850000 
 H        4.7385340000    -3.9164990000     3.0702100000 
 H        3.3967650000    -1.2877380000     4.0793490000 
 H        2.6790080000    -2.9673150000     4.3012970000 
*
