! RI PBE def2-SVP def2-SVP/J NBO PAL2
% maxcore 2000
% output
    # printlevel mini
    print[ P_Basis ] 0
    print[ P_SCFInfo ] 1
    print[ P_SCFIterInfo ] 1
    print[ P_OrbEn ] 0
    print[ P_Cartesian ] 0
end
*xyz 0 1
 C        0.9540740000    -0.0327610000    -0.0468150000 
 C        2.4678820000     0.1098110000     0.0740520000 
 C        2.9628320000     1.5013010000    -0.2252430000 
 N        2.1753470000     2.4091120000    -0.6178950000 
 N        2.6894500000     3.6216650000    -0.9516380000 
 C        2.9511210000    -0.3079190000     1.3884960000 
 C        3.3489980000    -0.6408500000     2.4714060000 
 H        0.6302140000     0.2512840000    -1.0480180000 
 H        0.4505450000     0.6187840000     0.6675990000 
 H        0.6598630000    -1.0643100000     0.1497390000 
 H        2.9373080000    -0.5620830000    -0.6604660000 
 H        4.0371270000     1.6792440000    -0.0922110000 
 H        3.5643240000     3.8612590000    -0.4935630000 
 H        1.9935240000     4.3420650000    -0.8433430000 
 H        3.6968890000    -0.9404000000     3.4314910000 
*
