! RI PBE def2-SVP def2-SVP/J NBO PAL2
% maxcore 2000
% output
    # printlevel mini
    print[ P_Basis ] 0
    print[ P_SCFInfo ] 1
    print[ P_SCFIterInfo ] 1
    print[ P_OrbEn ] 0
    print[ P_Cartesian ] 0
end
*xyz 0 1
 C        2.8234010000    -0.1693530000    -1.4667710000 
 C        2.4648380000    -0.0251310000     0.0069080000 
 C        2.8497880000    -1.2490380000     0.7494000000 
 N        3.1830340000    -2.1661870000     1.3588970000 
 N        3.0022910000     1.1769050000     0.6132390000 
 C        2.4208550000     1.4409240000     1.9128310000 
 C        4.4494000000     1.2239840000     0.6626450000 
 H        2.2733880000    -1.0029960000    -1.9053190000 
 H        3.8869280000    -0.3609240000    -1.6096600000 
 H        2.5539290000     0.7505850000    -1.9869970000 
 H        1.3745740000     0.0460020000     0.0852560000 
 H        1.3315790000     1.4691030000     1.8336770000 
 H        2.7591870000     2.4171590000     2.2650430000 
 H        2.6940790000     0.6892910000     2.6713930000 
 H        4.8718530000     1.1224890000    -0.3372010000 
 H        4.8849610000     0.4435010000     1.3076330000 
 H        4.7545960000     2.1964660000     1.0526160000 
*
