! RI PBE def2-SVP def2-SVP/J NBO PAL2
% maxcore 2000
% output
    # printlevel mini
    print[ P_Basis ] 0
    print[ P_SCFInfo ] 1
    print[ P_SCFIterInfo ] 1
    print[ P_OrbEn ] 0
    print[ P_Cartesian ] 0
end
*xyz 0 1
 C        2.7510180000    -0.0918870000     2.1326320000 
 C        3.4007830000    -0.5171590000     0.8192360000 
 C        2.6678620000     0.0060780000    -0.3628100000 
 N        3.2333660000     0.7557680000    -1.2175650000 
 N        2.3693750000     1.1406640000    -2.2414040000 
 C        2.9399680000     1.8800330000    -3.1018970000 
 C        2.2033790000     2.4038540000    -4.2765620000 
 H        3.2781890000    -0.5270730000     2.9837930000 
 H        1.7086180000    -0.4166710000     2.1840900000 
 H        2.7683710000     0.9944930000     2.2426060000 
 H        3.4092290000    -1.6127910000     0.7617730000 
 H        4.4372820000    -0.1783470000     0.7660930000 
 H        1.6114820000    -0.2574700000    -0.4852060000 
 H        3.9963450000     2.1384580000    -2.9786510000 
 H        1.1683430000     2.0642750000    -4.2645690000 
 H        2.6820360000     2.0751580000    -5.2044560000 
 H        2.2259340000     3.4982060000    -4.2838140000 
*
