! RI PBE def2-SVP def2-SVP/J NBO PAL2
% maxcore 2000
% output
    # printlevel mini
    print[ P_Basis ] 0
    print[ P_SCFInfo ] 1
    print[ P_SCFIterInfo ] 1
    print[ P_OrbEn ] 0
    print[ P_Cartesian ] 0
end
*xyz 0 1
 C        3.3373240000    -1.0826450000    -1.0587390000 
 C        2.6324190000    -0.1289140000    -0.1006970000 
 C        3.0183980000     1.2956460000    -0.3207650000 
 N        3.5287360000     1.9753630000     0.6290300000 
 N        3.8310470000     3.2820360000     0.4792750000 
 C        4.8620800000     3.7116940000     1.3916500000 
 C        3.8750760000     3.8535460000    -0.8394210000 
 H        3.0039300000    -2.1116330000    -0.9057780000 
 H        4.4196960000    -1.0512400000    -0.9133500000 
 H        3.1343750000    -0.8203990000    -2.1009280000 
 H        2.8564400000    -0.3864800000     0.9368400000 
 H        1.5471800000    -0.2319760000    -0.2295520000 
 H        2.8342120000     1.7119910000    -1.3149320000 
 H        4.6758460000     3.2504430000     2.3602500000 
 H        4.8287030000     4.7977400000     1.4999280000 
 H        5.8713460000     3.4239910000     1.0584270000 
 H        2.8857890000     3.8336340000    -1.3043370000 
 H        4.5771590000     3.3229390000    -1.5038480000 
 H        4.1879350000     4.8941760000    -0.7590540000 
*
