! RI PBE def2-SVP def2-SVP/J NBO PAL2
% maxcore 2000
% output
    # printlevel mini
    print[ P_Basis ] 0
    print[ P_SCFInfo ] 1
    print[ P_SCFIterInfo ] 1
    print[ P_OrbEn ] 0
    print[ P_Cartesian ] 0
end
*xyz 0 1
 C        2.8072000000    -1.5568870000    -0.3124090000 
 C        2.5985920000    -0.0924540000     0.0597150000 
 C        3.2933370000     0.8616810000    -0.8856460000 
 N        2.6777960000     1.5771930000    -1.7510350000 
 N        4.6665870000     0.8906130000    -0.8504400000 
 C        5.4094610000     0.5668270000     0.3410610000 
 C        5.3330240000     1.7987200000    -1.7538680000 
 H        2.2557230000    -2.2114150000     0.3661370000 
 H        3.8604900000    -1.8411620000    -0.2740060000 
 H        2.4538820000    -1.7468970000    -1.3281580000 
 H        2.9141820000     0.0844310000     1.0920990000 
 H        1.5333860000     0.1442900000     0.0263850000 
 H        1.6811370000     1.3919930000    -1.7082560000 
 H        4.9733740000    -0.2791290000     0.8682030000 
 H        5.4743790000     1.4127780000     1.0414690000 
 H        6.4282710000     0.2888350000     0.0619240000 
 H        4.8343770000     1.7780840000    -2.7203270000 
 H        6.3741870000     1.4881100000    -1.8635970000 
 H        5.3095060000     2.8353800000    -1.3921410000 
*
