! RI PBE def2-SVP def2-SVP/J NBO PAL2
% maxcore 2000
% output
    # printlevel mini
    print[ P_Basis ] 0
    print[ P_SCFInfo ] 1
    print[ P_SCFIterInfo ] 1
    print[ P_OrbEn ] 0
    print[ P_Cartesian ] 0
end
*xyz 0 1
 C        1.7141870000    -0.6932950000    -1.0937590000 
 C        1.7097840000     0.1644240000     0.1690630000 
 C        2.8992880000    -0.0991860000     1.0550240000 
 N        2.8927510000    -0.8226720000     2.1056740000 
 N        4.1052320000     0.4480400000     0.6849870000 
 C        4.3830710000     1.2935530000    -0.3622520000 
 C        5.5878480000     1.7831730000    -0.6546080000 
 H        0.8199790000    -0.5017570000    -1.6901390000 
 H        1.7293420000    -1.7541380000    -0.8362200000 
 H        2.5857540000    -0.4926610000    -1.7196900000 
 H        0.8163290000    -0.0519800000     0.7579220000 
 H        1.6554910000     1.2253910000    -0.0925090000 
 H        1.9602150000    -1.1790660000     2.2865410000 
 H        4.8634490000     0.1890930000     1.2996290000 
 H        3.5280700000     1.5603540000    -0.9709380000 
 H        6.4674010000     1.5400870000    -0.0693200000 
 H        5.7110090000     2.4463390000    -1.4982160000 
*
