! RI PBE def2-SVP def2-SVP/J NBO PAL2
% maxcore 2000
% output
    # printlevel mini
    print[ P_Basis ] 0
    print[ P_SCFInfo ] 1
    print[ P_SCFIterInfo ] 1
    print[ P_OrbEn ] 0
    print[ P_Cartesian ] 0
end
*xyz 0 1
 C        2.0522060000    -0.8686170000     1.2265090000 
 C        2.3356570000    -0.0760750000    -0.0484450000 
 C        2.8528530000    -0.9388800000    -1.1704040000 
 N        2.1226630000    -1.5666280000    -2.0201960000 
 N        0.7852730000    -1.4276580000    -1.9575960000 
 C        4.2648740000    -1.0861530000    -1.2895610000 
 C        5.4654030000    -1.1662380000    -1.3166450000 
 H        1.6713730000    -0.2151290000     2.0144100000 
 H        2.9639430000    -1.3447840000     1.5924220000 
 H        1.3163800000    -1.6598790000     1.0612610000 
 H        3.0795120000     0.6946420000     0.1624010000 
 H        1.4349380000     0.4483530000    -0.3857970000 
 H        0.3207660000    -2.1584400000    -2.4701110000 
 H        0.3687130000    -1.2409560000    -1.0539050000 
 H        6.5250560000    -1.2503460000    -1.3649440000 
*
