! RI PBE def2-SVP def2-SVP/J NBO PAL2
% maxcore 2000
% output
    # printlevel mini
    print[ P_Basis ] 0
    print[ P_SCFInfo ] 1
    print[ P_SCFIterInfo ] 1
    print[ P_OrbEn ] 0
    print[ P_Cartesian ] 0
end
*xyz 0 1
 C        2.1200480000     0.5529530000    -1.0420840000 
 C        2.2310190000    -0.4350110000     0.1015380000 
 N        3.0840040000    -1.5491150000    -0.2542990000 
 C        2.9602920000    -2.7676490000     0.5180760000 
 C        2.5473770000    -2.7390650000    -0.9077400000 
 C        1.0831610000    -2.8638830000    -1.2444120000 
 C        3.4659800000    -3.3244310000    -1.9475130000 
 H        1.5329250000     1.4250920000    -0.7449820000 
 H        1.6343580000     0.1000630000    -1.9096960000 
 H        3.1115390000     0.8904890000    -1.3503510000 
 H        1.2270560000    -0.7490280000     0.4268730000 
 H        2.6941620000     0.0520240000     0.9661700000 
 H        2.1641190000    -2.8130820000     1.2599930000 
 H        3.8890690000    -3.2444320000     0.8192890000 
 H        0.4326950000    -2.4518430000    -0.4728670000 
 H        0.8221610000    -3.9189690000    -1.3616940000 
 H        0.8548930000    -2.3639110000    -2.1904960000 
 H        4.5074400000    -3.1848620000    -1.6559820000 
 H        3.3158250000    -2.8339610000    -2.9140470000 
 H        3.2770880000    -4.3938690000    -2.0796050000 
*
