! RI PBE def2-SVP def2-SVP/J NBO PAL2
% maxcore 2000
% output
    # printlevel mini
    print[ P_Basis ] 0
    print[ P_SCFInfo ] 1
    print[ P_SCFIterInfo ] 1
    print[ P_OrbEn ] 0
    print[ P_Cartesian ] 0
end
*xyz 0 1
 C        2.0646730000     1.2697040000    -0.2231700000 
 C        2.3310770000    -0.2045120000    -0.0055550000 
 N        2.9956910000    -0.7876370000    -1.1550540000 
 C        2.8626610000    -2.2115020000    -1.3221020000 
 C        2.1235520000    -1.2753380000    -2.2143810000 
 C        2.5331380000    -1.0327270000    -3.6044020000 
 C        1.6898400000    -0.8656730000    -4.6149430000 
 H        1.5911270000     1.7104990000     0.6568250000 
 H        1.4026310000     1.4258910000    -1.0783990000 
 H        2.9973320000     1.8020160000    -0.4189020000 
 H        1.3870110000    -0.7308370000     0.2204480000 
 H        2.9874190000    -0.3456740000     0.8593730000 
 H        2.2689490000    -2.7610900000    -0.5941320000 
 H        3.7392440000    -2.7339360000    -1.6915540000 
 H        1.0520420000    -1.2084700000    -2.0259880000 
 H        3.6066140000    -0.9959790000    -3.7738530000 
 H        0.6146700000    -0.8913300000    -4.4662510000 
 H        2.0424390000    -0.6992950000    -5.6255380000 
*
