! RI PBE def2-SVP def2-SVP/J NBO PAL2
% maxcore 2000
% output
    # printlevel mini
    print[ P_Basis ] 0
    print[ P_SCFInfo ] 1
    print[ P_SCFIterInfo ] 1
    print[ P_OrbEn ] 0
    print[ P_Cartesian ] 0
end
*xyz 0 1
 C        2.4224040000     1.2559270000    -0.1036880000 
 C        2.5252900000    -0.2394200000     0.1049340000 
 N        3.0802700000    -0.8913710000    -1.0668980000 
 C        2.7733520000    -2.2879940000    -1.2307440000 
 C        2.1099600000    -1.2654770000    -2.0876690000 
 C        2.4551220000    -1.0788330000    -3.4674340000 
 C        2.7195040000    -0.9360580000    -4.6299370000 
 H        2.0325960000     1.7436550000     0.7923700000 
 H        1.7532370000     1.4907290000    -0.9350660000 
 H        3.4023880000     1.6787730000    -0.3314800000 
 H        1.5362090000    -0.6564650000     0.3638350000 
 H        3.1927360000    -0.4597920000     0.9439460000 
 H        2.1481580000    -2.7695720000    -0.4813900000 
 H        3.5605460000    -2.9024700000    -1.6524530000 
 H        1.0643450000    -1.0719160000    -1.8510400000 
 H        2.9635040000    -0.8052160000    -5.6573970000 
*
