! RI PBE def2-SVP def2-SVP/J NBO PAL2
% maxcore 2000
% output
    # printlevel mini
    print[ P_Basis ] 0
    print[ P_SCFInfo ] 1
    print[ P_SCFIterInfo ] 1
    print[ P_OrbEn ] 0
    print[ P_Cartesian ] 0
end
*xyz 0 1
 C        2.6300190000     0.8561860000     0.9026340000 
 C        1.9671290000     0.1937210000    -0.2865230000 
 N        2.8266610000     0.2419140000    -1.4537190000 
 C        2.1652920000     0.1399840000    -2.7378620000 
 C        2.7265490000     1.4306060000    -2.2703320000 
 C        3.9964310000     1.9968790000    -2.8354570000 
 N        3.6943680000     2.8694200000    -3.9594470000 
 H        1.9938310000     0.7880150000     1.7879360000 
 H        2.8196490000     1.9143460000     0.7050320000 
 H        3.5857540000     0.3774520000     1.1246170000 
 H        0.9924910000     0.6714200000    -0.4876420000 
 H        1.7660660000    -0.8597340000    -0.0664140000 
 H        1.0824950000     0.0364370000    -2.7426340000 
 H        2.6869770000    -0.4426460000    -3.4917600000 
 H        1.9946150000     2.1780790000    -1.9636790000 
 H        4.6694380000     1.1586050000    -3.0692740000 
 H        4.4924390000     2.5956920000    -2.0640310000 
 H        3.2910250000     2.3348270000    -4.7195920000 
 H        4.5374700000     3.3017060000    -4.3142450000 
*
