! RI PBE def2-SVP def2-SVP/J NBO PAL2
% maxcore 2000
% output
    # printlevel mini
    print[ P_Basis ] 0
    print[ P_SCFInfo ] 1
    print[ P_SCFIterInfo ] 1
    print[ P_OrbEn ] 0
    print[ P_Cartesian ] 0
end
*xyz 0 1
 C        3.3969680000    -0.4882670000     0.5774600000 
 C        2.2932890000     0.1377820000    -0.2460610000 
 N        2.8399820000     0.9697540000    -1.3050900000 
 C        1.9914680000     2.0073080000    -1.8236210000 
 C        3.1326430000     2.3407940000    -0.9265990000 
 C        4.3418870000     2.9312970000    -1.4338210000 
 N        5.3002400000     3.4281410000    -1.8304740000 
 H        2.9770960000    -1.1382470000     1.3477270000 
 H        4.0011050000     0.2751460000     1.0739020000 
 H        4.0581690000    -1.0821400000    -0.0556210000 
 H        1.6118470000     0.7157340000     0.4014950000 
 H        1.6931280000    -0.6381020000    -0.7301520000 
 H        1.0000750000     2.1291720000    -1.3924570000 
 H        2.0729490000     2.2058660000    -2.8860010000 
 H        2.8776550000     2.6525720000     0.0841220000 
*
