! RI PBE def2-SVP def2-SVP/J NBO PAL2
% maxcore 2000
% output
    # printlevel mini
    print[ P_Basis ] 0
    print[ P_SCFInfo ] 1
    print[ P_SCFIterInfo ] 1
    print[ P_OrbEn ] 0
    print[ P_Cartesian ] 0
end
*xyz 0 1
 C        2.5664160000     1.5380190000     0.2829470000 
 C        2.2242340000     0.1749720000    -0.2846520000 
 N        2.8977260000    -0.0214800000    -1.5521250000 
 C        2.4461600000    -1.0649500000    -2.4625780000 
 C        1.3299420000    -2.0165520000    -2.1342090000 
 C        2.1999380000     0.3660380000    -2.7627000000 
 C        2.9607640000     1.1311600000    -3.8037280000 
 H        2.0928130000     1.6830730000     1.2568210000 
 H        2.2208960000     2.3340330000    -0.3818140000 
 H        3.6464850000     1.6437230000     0.4004380000 
 H        1.1302460000     0.0792120000    -0.3628600000 
 H        2.5635310000    -0.6078990000     0.4019300000 
 H        3.2780910000    -1.5350150000    -2.9857110000 
 H        1.6583560000    -2.7821740000    -1.4252490000 
 H        0.4596420000    -1.5139070000    -1.7112640000 
 H        1.0040360000    -2.5296030000    -3.0426520000 
 H        1.1631320000     0.6795700000    -2.6223560000 
 H        3.9823360000     0.7541620000    -3.8779170000 
 H        3.0124200000     2.1939190000    -3.5514520000 
 H        2.4849260000     1.0394900000    -4.7840910000 
*
