! RI PBE def2-SVP def2-SVP/J NBO PAL2
% maxcore 2000
% output
    # printlevel mini
    print[ P_Basis ] 0
    print[ P_SCFInfo ] 1
    print[ P_SCFIterInfo ] 1
    print[ P_OrbEn ] 0
    print[ P_Cartesian ] 0
end
*xyz 0 1
 C        0.9445980000    -0.3773500000    -0.0796000000 
 C        2.4252700000    -0.0371370000    -0.0674640000 
 N        2.9267860000     0.3760010000    -1.3580580000 
 C        2.9058180000     1.6511900000    -1.8430010000 
 C        3.3723460000     1.6320860000    -3.1334520000 
 C        3.6829960000     0.2869310000    -3.4433640000 
 C        3.3934420000    -0.4607010000    -2.3295950000 
 H        0.6171020000    -0.6822020000     0.9172260000 
 H        0.7391670000    -1.1950640000    -0.7730090000 
 H        0.3500290000     0.4849650000    -0.3871180000 
 H        3.0113920000    -0.8996090000     0.2593210000 
 H        2.6249150000     0.7687150000     0.6431160000 
 H        2.5662600000     2.4698630000    -1.2275700000 
 H        3.4898190000     2.4911210000    -3.7754360000 
 H        4.0859850000    -0.0904620000    -4.3702170000 
 H        3.4874840000    -1.5199660000    -2.1468610000 
*
