! RI PBE def2-SVP def2-SVP/J NBO PAL2
% maxcore 2000
% output
    # printlevel mini
    print[ P_Basis ] 0
    print[ P_SCFInfo ] 1
    print[ P_SCFIterInfo ] 1
    print[ P_OrbEn ] 0
    print[ P_Cartesian ] 0
end
*xyz 0 1
 C        2.5661960000    -1.1932540000     0.4061630000 
 C        2.3117940000     0.0070750000    -0.0999870000 
 N        3.0169350000     0.6490220000    -1.1130680000 
 C        2.6953200000     1.8981410000    -1.5894610000 
 C        3.5816890000     2.2288450000    -2.5730250000 
 C        4.4828240000     1.1387190000    -2.7048980000 
 C        4.1120460000     0.1863800000    -1.7980270000 
 H        1.9374720000    -1.5791630000     1.1959300000 
 H        3.3822170000    -1.8172430000     0.0658460000 
 H        1.4834950000     0.6011770000     0.2693680000 
 H        1.8573100000     2.4384590000    -1.1786860000 
 H        3.5862550000     3.1483300000    -3.1366710000 
 H        5.3122190000     1.0626600000    -3.3906380000 
 H        4.5368380000    -0.7797460000    -1.5849560000 
*
