! RI PBE def2-SVP def2-SVP/J NBO PAL2
% maxcore 2000
% output
    # printlevel mini
    print[ P_Basis ] 0
    print[ P_SCFInfo ] 1
    print[ P_SCFIterInfo ] 1
    print[ P_OrbEn ] 0
    print[ P_Cartesian ] 0
end
*xyz 0 1
 C        2.5606310000    -1.2880220000     0.9701810000 
 C        2.3761520000    -0.0056990000     0.1824630000 
 N        2.7407860000     1.1763950000     0.9273200000 
 C        2.7146910000     2.3895600000     0.1335170000 
 C        2.8566570000     3.5072270000     1.1632060000 
 C        2.2983740000     2.8923690000     2.4634000000 
 C        1.8938270000     1.4733960000     2.0669170000 
 H        2.3563240000    -2.1543500000     0.3370980000 
 H        1.8842220000    -1.3407030000     1.8260400000 
 H        3.5851780000    -1.3652510000     1.3408470000 
 H        1.3292710000     0.0638750000    -0.1752540000 
 H        3.0072830000    -0.0388580000    -0.7114660000 
 H        1.7536410000     2.4886340000    -0.4082950000 
 H        3.5127150000     2.3806620000    -0.6135440000 
 H        2.3189320000     4.4061990000     0.8578560000 
 H        3.9055160000     3.7810800000     1.2880100000 
 H        1.4516640000     3.4521780000     2.8637330000 
 H        3.0672260000     2.8680040000     3.2372510000 
 H        0.8235770000     1.4444620000     1.7814050000 
 H        2.0396330000     0.7500130000     2.8712240000 
*
