! RI PBE def2-SVP def2-SVP/J NBO PAL2
% maxcore 2000
% output
    # printlevel mini
    print[ P_Basis ] 0
    print[ P_SCFInfo ] 1
    print[ P_SCFIterInfo ] 1
    print[ P_OrbEn ] 0
    print[ P_Cartesian ] 0
end
*xyz 0 1
 C        3.3782310000     0.8017200000     0.9199800000 
 C        2.4965730000    -0.1246420000     0.1057230000 
 N        2.5895170000     0.1226580000    -1.3110280000 
 C        1.9718410000    -0.8922870000    -2.1518330000 
 C        1.5884740000    -0.1328370000    -3.3803340000 
 C        1.6845940000     1.1707430000    -3.1626360000 
 C        2.1464290000     1.4334450000    -1.7646960000 
 H        3.3212630000     0.5482480000     1.9809120000 
 H        3.0711530000     1.8448350000     0.8137100000 
 H        4.4189260000     0.7205290000     0.5983820000 
 H        1.4496700000    -0.0446390000     0.4609530000 
 H        2.8039900000    -1.1604080000     0.2823740000 
 H        1.0720240000    -1.3413580000    -1.6865250000 
 H        2.6676160000    -1.7172760000    -2.3500350000 
 H        1.2531280000    -0.6071140000    -4.2937150000 
 H        1.4426380000     1.9575560000    -3.8656650000 
 H        1.3116100000     1.8358450000    -1.1558090000 
 H        2.9552930000     2.1719020000    -1.7130680000 
*
