! RI PBE def2-SVP def2-SVP/J NBO PAL2
% maxcore 2000
% output
    # printlevel mini
    print[ P_Basis ] 0
    print[ P_SCFInfo ] 1
    print[ P_SCFIterInfo ] 1
    print[ P_OrbEn ] 0
    print[ P_Cartesian ] 0
end
*xyz 0 1
 C        1.0868620000     0.3071410000    -0.5351660000 
 C        2.5073120000    -0.0830510000    -0.1755910000 
 N        2.9493690000    -1.2711540000    -0.8706550000 
 C        3.8531840000    -1.3576050000    -1.8671920000 
 C        3.9166850000    -2.6816860000    -2.2351730000 
 C        2.9972520000    -3.3162560000    -1.3866580000 
 N        2.4158820000    -2.4537670000    -0.5659720000 
 H        0.7865360000     1.1925890000     0.0293080000 
 H        0.4007610000    -0.5060200000    -0.2960140000 
 H        0.9996580000     0.5310730000    -1.6003880000 
 H        2.5917870000    -0.2743400000     0.8966760000 
 H        3.2097190000     0.7139400000    -0.4272900000 
 H        4.3768590000    -0.4873160000    -2.2306820000 
 H        4.5395430000    -3.1201370000    -2.9972050000 
 H        2.7369900000    -4.3630100000    -1.3344070000 
*
