! RI PBE def2-SVP def2-SVP/J NBO PAL2
% maxcore 2000
% output
    # printlevel mini
    print[ P_Basis ] 0
    print[ P_SCFInfo ] 1
    print[ P_SCFIterInfo ] 1
    print[ P_OrbEn ] 0
    print[ P_Cartesian ] 0
end
*xyz 0 1
 C        0.9876390000    -0.1346830000    -0.0407430000 
 C        2.0452550000     0.5456760000     0.3740940000 
 N        2.8409970000     0.1922140000     1.4658720000 
 C        3.9285510000     0.8709840000     1.9112430000 
 C        4.4090160000     0.1861100000     2.9952220000 
 C        3.5313140000    -0.9069430000     3.1270400000 
 N        2.5898570000    -0.8961770000     2.2024020000 
 H        0.4306780000     0.2161300000    -0.8980820000 
 H        0.6686060000    -1.0373560000     0.4624910000 
 H        2.3848400000     1.4521860000    -0.1126250000 
 H        4.2635110000     1.7730470000     1.4240430000 
 H        5.2639750000     0.4357260000     3.6012040000 
 H        3.5492710000    -1.7005040000     3.8594590000 
*
