! RI PBE def2-SVP def2-SVP/J NBO PAL2
% maxcore 2000
% output
    # printlevel mini
    print[ P_Basis ] 0
    print[ P_SCFInfo ] 1
    print[ P_SCFIterInfo ] 1
    print[ P_OrbEn ] 0
    print[ P_Cartesian ] 0
end
*xyz 0 1
 C        1.1706280000     0.2651810000     0.3604610000 
 C        2.6056540000    -0.1464610000     0.1026060000 
 N        2.8609950000    -1.5069650000     0.5184580000 
 C        2.2198940000    -2.5730530000    -0.2514790000 
 C        3.1213470000    -3.7678140000     0.0401680000 
 C        4.3875150000    -3.0366730000     0.3802360000 
 N        4.2003820000    -1.8016910000     0.6322150000 
 H        1.0243300000     1.3117510000     0.0853930000 
 H        0.9195580000     0.1462120000     1.4166070000 
 H        0.4659160000    -0.3290240000    -0.2263480000 
 H        3.2927920000     0.4856870000     0.6670840000 
 H        2.8480130000    -0.0161990000    -0.9669690000 
 H        2.2407400000    -2.3242530000    -1.3266060000 
 H        1.1833850000    -2.7179530000     0.0518540000 
 H        3.2170380000    -4.4608990000    -0.7963640000 
 H        2.7703690000    -4.3394970000     0.9087330000 
 H        5.3707530000    -3.4746290000     0.4950600000 
*
