! RI PBE def2-SVP def2-SVP/J NBO PAL2
% maxcore 2000
% output
    # printlevel mini
    print[ P_Basis ] 0
    print[ P_SCFInfo ] 1
    print[ P_SCFIterInfo ] 1
    print[ P_OrbEn ] 0
    print[ P_Cartesian ] 0
end
*xyz 0 1
 C        2.9333950000     0.0227440000     1.3351350000 
 C        2.9562060000    -0.0480940000    -0.1796530000 
 N        3.4454880000    -1.3130670000    -0.6709820000 
 C        2.6208630000    -2.5089950000    -0.5504230000 
 C        3.2745920000    -3.4298110000    -1.5940090000 
 N        4.0244310000    -2.5453870000    -2.4880660000 
 C        4.0659760000    -1.4216470000    -1.8949470000 
 H        2.5857920000     1.0042950000     1.6648370000 
 H        3.9311590000    -0.1483280000     1.7442720000 
 H        2.2596620000    -0.7255760000     1.7584400000 
 H        3.6097540000     0.7341390000    -0.5757980000 
 H        1.9454720000     0.1499130000    -0.5737420000 
 H        1.5768180000    -2.2706460000    -0.8089900000 
 H        2.6371640000    -2.9202640000     0.4601130000 
 H        2.5498430000    -4.0257810000    -2.1513400000 
 H        3.9758400000    -4.1272660000    -1.1211320000 
 H        4.5935660000    -0.5576500000    -2.2912330000 
*
