! RI PBE def2-SVP def2-SVP/J NBO PAL2
% maxcore 2000
% output
    # printlevel mini
    print[ P_Basis ] 0
    print[ P_SCFInfo ] 1
    print[ P_SCFIterInfo ] 1
    print[ P_OrbEn ] 0
    print[ P_Cartesian ] 0
end
*xyz 0 1
 C        1.8746880000     2.4967330000     0.3335910000 
 C        3.1756090000     2.2896680000    -0.4129960000 
 N        3.8045450000     1.0405900000    -0.0272170000 
 C        5.0234570000     0.7671430000    -0.7175800000 
 C        6.2926600000     1.3073700000    -0.1269080000 
 C        6.0061230000    -0.1646810000    -0.0842130000 
 C        6.8037640000    -1.1235080000    -0.9204390000 
 H        1.4160930000     3.4497530000     0.0616110000 
 H        2.0441250000     2.4870810000     1.4123040000 
 H        1.1554820000     1.7059100000     0.0989280000 
 H        3.8745480000     3.0987290000    -0.1769020000 
 H        2.9924310000     2.3477180000    -1.5005530000 
 H        3.1527500000     0.2743650000    -0.1529540000 
 H        4.9847600000     0.7459060000    -1.8110710000 
 H        6.1982050000     1.8667290000     0.7955230000 
 H        7.0641290000     1.6566150000    -0.8034140000 
 H        5.6945750000    -0.5366630000     0.8866480000 
 H        7.0606990000    -0.6816860000    -1.8868900000 
 H        6.2470760000    -2.0449680000    -1.1141150000 
 H        7.7398810000    -1.3965040000    -0.4254510000 
*
