! RI PBE def2-SVP def2-SVP/J NBO PAL2
% maxcore 2000
% output
    # printlevel mini
    print[ P_Basis ] 0
    print[ P_SCFInfo ] 1
    print[ P_SCFIterInfo ] 1
    print[ P_OrbEn ] 0
    print[ P_Cartesian ] 0
end
*xyz 0 1
 C        2.7004010000    -1.6147370000    -0.1136280000 
 C        2.5920630000    -0.0964900000    -0.0098070000 
 N        3.2749730000     0.4607310000     1.1529270000 
 C        3.0752310000     0.5723770000    -1.2875150000 
 C        3.0273450000     2.1062420000    -1.4131030000 
 C        4.3385480000     2.0380860000    -2.2177880000 
 C        4.5850080000     0.6424330000    -1.6138780000 
 H        2.3314560000    -2.0978600000     0.7951290000 
 H        3.7439240000    -1.9161460000    -0.2525850000 
 H        2.1259520000    -2.0035550000    -0.9595110000 
 H        1.5325520000     0.1676540000     0.1032870000 
 H        4.2252600000     0.1103060000     1.2007140000 
 H        2.8167900000     0.1588910000     2.0037570000 
 H        2.5495220000     0.1183440000    -2.1346030000 
 H        3.1813990000     2.5647480000    -0.4343350000 
 H        2.1521670000     2.5526060000    -1.8893770000 
 H        5.0895670000     2.8090080000    -2.0384780000 
 H        4.1493690000     1.9789240000    -3.2921690000 
 H        5.1880010000     0.7197170000    -0.7055830000 
 H        5.0123810000    -0.1308680000    -2.2547450000 
*
