! RI PBE def2-SVP def2-SVP/J NBO PAL2
% maxcore 2000
% output
    # printlevel mini
    print[ P_Basis ] 0
    print[ P_SCFInfo ] 1
    print[ P_SCFIterInfo ] 1
    print[ P_OrbEn ] 0
    print[ P_Cartesian ] 0
end
*xyz 0 1
 C        1.0058840000     0.4106710000     0.2171940000 
 C        2.4722140000     0.0264880000     0.0565620000 
 N        2.7631940000    -1.3402370000     0.4839360000 
 C        3.0398520000     0.2051780000    -1.3446120000 
 C        4.5462900000     0.1490120000    -1.3909010000 
 C        2.3030470000    -0.3950530000    -2.5083410000 
 C        2.3676260000     1.0958220000    -2.3438910000 
 H        0.6850690000     0.2049580000     1.2416110000 
 H        0.3595160000    -0.1679490000    -0.4494740000 
 H        0.8329770000     1.4726260000     0.0277150000 
 H        3.0558200000     0.6844710000     0.7142980000 
 H        2.2658330000    -1.9947620000    -0.1103620000 
 H        2.4383190000    -1.4931930000     1.4310460000 
 H        4.9090680000    -0.7776000000    -0.9424700000 
 H        4.9826960000     0.9868800000    -0.8377850000 
 H        4.9086920000     0.2039540000    -2.4202200000 
 H        1.3449640000    -0.8716870000    -2.3352350000 
 H        2.8914740000    -0.8549810000    -3.2932970000 
 H        1.4532010000     1.6071330000    -2.0725090000 
 H        3.0063410000     1.6556920000    -3.0170670000 
*
