! RI PBE def2-SVP def2-SVP/J NBO PAL2
% maxcore 2000
% output
    # printlevel mini
    print[ P_Basis ] 0
    print[ P_SCFInfo ] 1
    print[ P_SCFIterInfo ] 1
    print[ P_OrbEn ] 0
    print[ P_Cartesian ] 0
end
*xyz 0 1
 C        2.3838520000     0.5643800000    -1.4279050000 
 C        2.4367360000    -0.0276760000    -0.0248640000 
 N        1.1144330000    -0.3272500000     0.5231890000 
 C        3.3297430000    -1.2599240000     0.0194030000 
 C        3.5301550000    -1.9742560000     1.3630830000 
 C        3.2413560000    -3.2708600000     0.5952730000 
 N        2.7952840000    -2.5051640000    -0.5990820000 
 H        1.7687450000     1.4674740000    -1.4473680000 
 H        1.9550100000    -0.1559530000    -2.1315560000 
 H        3.3818790000     0.8219730000    -1.7912770000 
 H        2.9037080000     0.7027480000     0.6472310000 
 H        0.4720520000    -0.5856130000    -0.2165650000 
 H        0.7182980000     0.4889300000     0.9689910000 
 H        4.2850760000    -1.0050320000    -0.4558770000 
 H        2.7323860000    -1.7237770000     2.0644090000 
 H        4.5026620000    -1.8733730000     1.8484760000 
 H        2.4896280000    -3.9398200000     1.0203460000 
 H        4.1355470000    -3.8575880000     0.3658650000 
 H        1.7815490000    -2.4643000000    -0.5861530000 
*
