! RI PBE def2-SVP def2-SVP/J NBO PAL2
% maxcore 2000
% output
    # printlevel mini
    print[ P_Basis ] 0
    print[ P_SCFInfo ] 1
    print[ P_SCFIterInfo ] 1
    print[ P_OrbEn ] 0
    print[ P_Cartesian ] 0
end
*xyz 0 1
 C        3.1298470000     1.1530150000     0.7742650000 
 C        2.3923680000    -0.0004180000     0.0981790000 
 N        2.3222020000     0.1040540000    -1.3488600000 
 C        3.0372400000    -1.3145520000     0.4751850000 
 C        2.9565840000    -2.5303590000    -0.3615710000 
 N        4.1756030000    -1.7413820000    -0.3107700000 
 C        5.2828970000    -2.3233300000     0.4110290000 
 H        2.6618340000     2.1100170000     0.5283780000 
 H        4.1695440000     1.1862880000     0.4357860000 
 H        3.1275840000     1.0507350000     1.8639480000 
 H        1.3628900000    -0.0256060000     0.4789780000 
 H        3.2569840000    -0.0108220000    -1.7275930000 
 H        1.9858340000     1.0183980000    -1.6219040000 
 H        3.1090920000    -1.4831250000     1.5498330000 
 H        2.4142790000    -2.4973400000    -1.2990540000 
 H        2.9617320000    -3.4884220000     0.1539840000 
 H        5.8458580000    -2.9829620000    -0.2538550000 
 H        4.9638860000    -2.9093150000     1.2878160000 
 H        5.9542540000    -1.5321830000     0.7536370000 
*
