! RI PBE def2-SVP def2-SVP/J NBO PAL2
% maxcore 2000
% output
    # printlevel mini
    print[ P_Basis ] 0
    print[ P_SCFInfo ] 1
    print[ P_SCFIterInfo ] 1
    print[ P_OrbEn ] 0
    print[ P_Cartesian ] 0
end
*xyz 0 1
 C        0.9149290000     0.2446530000    -0.1515550000 
 C        2.3654310000     0.2722130000    -0.5838820000 
 N        3.0798820000    -0.8926480000    -0.0970620000 
 C        4.4530360000    -0.9380770000    -0.5216470000 
 C        5.4528400000    -0.0425420000     0.2322600000 
 N        6.4004240000    -1.1703820000     0.2394490000 
 C        5.2981000000    -2.1133070000    -0.0119520000 
 H        0.3883780000     1.1375300000    -0.4948870000 
 H        0.8387330000     0.1920480000     0.9363350000 
 H        0.3970100000    -0.6247980000    -0.5679440000 
 H        2.8557590000     1.1607950000    -0.1708820000 
 H        2.4268300000     0.3697320000    -1.6826730000 
 H        2.6025440000    -1.7334250000    -0.4046400000 
 H        4.5743540000    -0.8108420000    -1.6092950000 
 H        5.0509450000     0.2200840000     1.2193350000 
 H        5.8211160000     0.8580320000    -0.2662750000 
 H        6.9032110000    -1.3103830000     1.1057170000 
 H        4.8475750000    -2.5365880000     0.8953540000 
 H        5.5347150000    -2.9189140000    -0.7125750000 
*
