! RI PBE def2-SVP def2-SVP/J NBO PAL2
% maxcore 2000
% output
    # printlevel mini
    print[ P_Basis ] 0
    print[ P_SCFInfo ] 1
    print[ P_SCFIterInfo ] 1
    print[ P_OrbEn ] 0
    print[ P_Cartesian ] 0
end
*xyz 0 1
 C        1.0096000000     0.2494760000    -0.1488610000 
 C        2.4713720000    -0.1134620000     0.0947040000 
 N        2.7313790000    -0.6362250000     1.4320110000 
 C        2.9739020000    -1.0721160000    -0.9712090000 
 C        4.4178630000    -1.5929040000    -0.9052120000 
 N        3.9293400000    -2.9175330000    -1.3324590000 
 C        2.5570760000    -2.5568730000    -0.9442650000 
 H        0.6535690000     0.9624770000     0.5993040000 
 H        0.3768800000    -0.6422870000    -0.0885010000 
 H        0.8641990000     0.6949160000    -1.1370780000 
 H        3.0722790000     0.8005750000     0.0036320000 
 H        2.0770950000    -1.3792570000     1.6511120000 
 H        2.5825810000     0.0883440000     2.1233410000 
 H        2.7659820000    -0.6468700000    -1.9563260000 
 H        4.7953260000    -1.5613590000     0.1229020000 
 H        5.1490850000    -1.1400560000    -1.5808680000 
 H        4.3247710000    -3.7035890000    -0.8330440000 
 H        2.2786580000    -2.8932950000     0.0638050000 
 H        1.7835430000    -2.8809610000    -1.6461970000 
*
