! RI PBE def2-SVP def2-SVP/J NBO PAL2
% maxcore 2000
% output
    # printlevel mini
    print[ P_Basis ] 0
    print[ P_SCFInfo ] 1
    print[ P_SCFIterInfo ] 1
    print[ P_OrbEn ] 0
    print[ P_Cartesian ] 0
end
*xyz 0 1
 C        1.2781140000     0.1558170000    -1.4328730000 
 C        2.2008440000    -0.0023180000    -0.2318290000 
 N        3.1898170000    -1.0675990000    -0.3908270000 
 C        2.9614520000     1.2485550000     0.1878860000 
 N        3.6840180000     1.1348990000     1.4265280000 
 C        3.6419960000     2.0884060000    -0.8553310000 
 C        2.4520300000     2.6211470000    -0.1087170000 
 H        0.7929530000    -0.7988110000    -1.6523000000 
 H        1.8300920000     0.4549000000    -2.3286260000 
 H        0.4891530000     0.8901000000    -1.2549320000 
 H        1.5811340000    -0.2856090000     0.6297900000 
 H        3.7615170000    -0.8812680000    -1.2081030000 
 H        2.7355240000    -1.9596450000    -0.5434410000 
 H        4.1912380000     0.2554860000     1.4192940000 
 H        3.0317480000     1.0914530000     2.2023650000 
 H        3.5068490000     1.8442660000    -1.9022210000 
 H        4.6161970000     2.4786930000    -0.5927020000 
 H        1.5244690000     2.7366520000    -0.6536990000 
 H        2.6358650000     3.3722850000     0.6487470000 
*
