! RI PBE def2-SVP def2-SVP/J NBO PAL2
% maxcore 2000
% output
    # printlevel mini
    print[ P_Basis ] 0
    print[ P_SCFInfo ] 1
    print[ P_SCFIterInfo ] 1
    print[ P_OrbEn ] 0
    print[ P_Cartesian ] 0
end
*xyz 0 1
 C        1.1770630000    -0.3110950000     0.1827210000 
 C        2.6474400000    -0.0109310000    -0.0188910000 
 N        3.0157990000    -0.1049330000    -1.4153310000 
 C        4.4016590000     0.2190620000    -1.6756610000 
 C        4.7046400000     0.1739300000    -3.1436090000 
 C        4.4536940000     1.3878320000    -3.9894140000 
 C        5.8570860000     0.9523710000    -3.6921890000 
 H        0.9120780000    -0.2714180000     1.2414440000 
 H        0.9313530000    -1.3033310000    -0.2010750000 
 H        0.5511110000     0.4173440000    -0.3416480000 
 H        3.2512720000    -0.7383860000     0.5357990000 
 H        2.8869320000     0.9783560000     0.4131590000 
 H        2.4212330000     0.5007900000    -1.9703350000 
 H        5.0248170000    -0.5112460000    -1.1450080000 
 H        4.6888500000     1.2135750000    -1.2827830000 
 H        4.4995340000    -0.7839600000    -3.6104480000 
 H        4.0927160000     2.2818230000    -3.4926950000 
 H        4.0748120000     1.2498390000    -4.9943270000 
 H        6.4345170000     1.5534810000    -2.9993920000 
 H        6.4381940000     0.5129980000    -4.4931170000 
*
