! RI PBE def2-SVP def2-SVP/J NBO PAL2
% maxcore 2000
% output
    # printlevel mini
    print[ P_Basis ] 0
    print[ P_SCFInfo ] 1
    print[ P_SCFIterInfo ] 1
    print[ P_OrbEn ] 0
    print[ P_Cartesian ] 0
end
*xyz 0 1
 C        2.9204710000     0.1932120000     1.4756950000 
 C        2.5036640000     0.0186310000     0.0202530000 
 N        1.0604330000    -0.0891250000    -0.1685380000 
 C        3.0192440000     1.1385960000    -0.8781870000 
 C        4.5176590000     1.2483070000    -0.9545790000 
 C        5.1486020000     2.4999470000    -1.4816450000 
 C        5.2812570000     2.1495750000    -0.0308570000 
 H        2.5362970000    -0.6281440000     2.0870270000 
 H        2.5178520000     1.1283460000     1.8795570000 
 H        4.0067240000     0.2189110000     1.5878760000 
 H        2.9346230000    -0.9214320000    -0.3485980000 
 H        0.6105970000     0.7678620000     0.1373810000 
 H        0.6854760000    -0.8305660000     0.4118810000 
 H        2.6062170000     2.0955680000    -0.5289640000 
 H        2.6079890000     0.9718810000    -1.8790160000 
 H        5.0205000000     0.3243380000    -1.2284430000 
 H        4.4886260000     3.3184940000    -1.7448020000 
 H        6.0239110000     2.4121420000    -2.1130550000 
 H        4.7114870000     2.7335220000     0.6825820000 
 H        6.2484720000     1.8233250000     0.3317440000 
*
