! RI PBE def2-SVP def2-SVP/J NBO PAL2
% maxcore 2000
% output
    # printlevel mini
    print[ P_Basis ] 0
    print[ P_SCFInfo ] 1
    print[ P_SCFIterInfo ] 1
    print[ P_OrbEn ] 0
    print[ P_Cartesian ] 0
end
*xyz 0 1
 C        2.5853850000     1.0919310000     1.2165160000 
 C        2.3603640000     0.8447010000    -0.2614640000 
 N        3.1446600000    -0.2491770000    -0.8120160000 
 C        2.7012000000    -0.5634620000    -2.1541970000 
 C        4.5520340000     0.0002000000    -0.7827930000 
 C        5.3555930000    -0.4212250000     0.4073740000 
 C        5.4763980000    -1.1705590000    -0.8839650000 
 H        1.8995650000     1.8658260000     1.5691890000 
 H        3.6019360000     1.4279220000     1.4243960000 
 H        2.4012330000     0.1826790000     1.7930900000 
 H        2.5459530000     1.7803830000    -0.8236520000 
 H        1.3072300000     0.5951450000    -0.4242670000 
 H        1.6456160000    -0.8450150000    -2.1384740000 
 H        3.2754050000    -1.4038080000    -2.5468320000 
 H        2.8164200000     0.2844540000    -2.8531120000 
 H        4.8828260000     0.9151740000    -1.2875970000 
 H        4.8179590000    -0.9094310000     1.2092560000 
 H        6.1771820000     0.2110270000     0.7212900000 
 H        5.0162380000    -2.1499100000    -0.9275110000 
 H        6.3810030000    -1.0622740000    -1.4688210000 
*
