! RI PBE def2-SVP def2-SVP/J NBO PAL2
% maxcore 2000
% output
    # printlevel mini
    print[ P_Basis ] 0
    print[ P_SCFInfo ] 1
    print[ P_SCFIterInfo ] 1
    print[ P_OrbEn ] 0
    print[ P_Cartesian ] 0
end
*xyz 0 1
 C        0.8372080000    -0.5478370000    -0.5027270000 
 C        2.3478960000    -0.5624270000    -0.5955310000 
 N        2.8019360000    -1.5729570000    -1.5340310000 
 C        4.2375330000    -1.5940420000    -1.7386520000 
 C        4.7457220000    -2.9518910000    -2.1709420000 
 C        4.2860900000    -4.1782460000    -1.5018830000 
 N        3.8847940000    -3.8901850000    -2.8805650000 
 H        0.5003370000     0.1915380000     0.2266760000 
 H        0.4591510000    -1.5279180000    -0.2045830000 
 H        0.3852250000    -0.2898980000    -1.4653580000 
 H        2.7767120000    -0.8004680000     0.3835830000 
 H        2.7108880000     0.4466540000    -0.8575610000 
 H        2.3359740000    -1.4200110000    -2.4207070000 
 H        4.7216810000    -1.3322560000    -0.7915370000 
 H        4.5661830000    -0.8367640000    -2.4678560000 
 H        5.7647100000    -2.9339710000    -2.5494500000 
 H        3.5315700000    -4.0610420000    -0.7303130000 
 H        4.9595860000    -5.0197230000    -1.3808880000 
 H        2.9302940000    -3.5422760000    -2.8474640000 
*
