! RI PBE def2-SVP def2-SVP/J NBO PAL2
% maxcore 2000
% output
    # printlevel mini
    print[ P_Basis ] 0
    print[ P_SCFInfo ] 1
    print[ P_SCFIterInfo ] 1
    print[ P_OrbEn ] 0
    print[ P_Cartesian ] 0
end
*xyz 0 1
 C        2.8850500000     0.7557420000     1.6915760000 
 C        2.6076990000    -0.2105830000     0.5455100000 
 N        1.1943110000    -0.5207930000     0.3611570000 
 C        3.1640850000     0.2858360000    -0.7858150000 
 C        4.6556440000     0.4585570000    -0.8135790000 
 C        5.2874340000     1.3702290000    -1.7841080000 
 N        5.2896000000     1.6951580000    -0.3592940000 
 H        2.4762450000     0.3679040000     2.6284930000 
 H        2.4106370000     1.7245480000     1.4988570000 
 H        3.9552340000     0.9234170000     1.8348760000 
 H        3.1064720000    -1.1616020000     0.7723000000 
 H        0.6815530000     0.3272520000     0.1417500000 
 H        0.7988160000    -0.8781590000     1.2230340000 
 H        2.6869320000     1.2420890000    -1.0454600000 
 H        2.8645800000    -0.4305310000    -1.5575920000 
 H        5.2181820000    -0.4281970000    -0.5275450000 
 H        4.6301770000     1.9305140000    -2.4428900000 
 H        6.2597020000     1.1365920000    -2.2040230000 
 H        4.5785490000     2.3928170000    -0.1643500000 
*
