! RI PBE def2-SVP def2-SVP/J NBO PAL2
% maxcore 2000
% output
    # printlevel mini
    print[ P_Basis ] 0
    print[ P_SCFInfo ] 1
    print[ P_SCFIterInfo ] 1
    print[ P_OrbEn ] 0
    print[ P_Cartesian ] 0
end
*xyz 0 1
 C        0.8227800000     0.3592200000     0.0473150000 
 C        2.3425760000     0.1893260000     0.0117200000 
 N        3.0282190000     1.3581070000    -0.5322880000 
 C        2.8318980000    -0.0784950000     1.4176460000 
 C        3.8630560000     0.5114040000     2.0042270000 
 C        2.7747030000    -0.9927320000    -0.8259790000 
 C        1.9916960000    -1.9092100000    -1.3766510000 
 H        0.5657840000     1.2334980000     0.6501130000 
 H        0.3222670000    -0.5071320000     0.4872080000 
 H        0.4300010000     0.5074290000    -0.9617090000 
 H        2.7677780000     2.1853160000    -0.0064140000 
 H        2.7398730000     1.5052460000    -1.4922150000 
 H        2.2659910000    -0.8385370000     1.9511160000 
 H        4.4571820000     1.2524220000     1.4822730000 
 H        4.1488860000     0.2554710000     3.0179190000 
 H        3.8531440000    -1.0525750000    -0.9508130000 
 H        0.9121140000    -1.8892910000    -1.2778230000 
 H        2.4125410000    -2.7253570000    -1.9525440000 
*
