! RI PBE def2-SVP def2-SVP/J NBO PAL2
% maxcore 2000
% output
    # printlevel mini
    print[ P_Basis ] 0
    print[ P_SCFInfo ] 1
    print[ P_SCFIterInfo ] 1
    print[ P_OrbEn ] 0
    print[ P_Cartesian ] 0
end
*xyz 0 1
 C        2.1189150000    -0.9771470000     1.4298800000 
 C        2.7901720000    -0.3993930000     0.1835970000 
 N        1.9271290000    -0.4013130000    -0.9995620000 
 C        3.2508670000     1.0003430000     0.4482730000 
 C        4.4780460000     1.5086500000     0.3430440000 
 C        5.6869850000     0.7445740000    -0.0970670000 
 C        4.7401370000     2.9476700000     0.6668640000 
 H        1.7628570000    -1.9943700000     1.2414640000 
 H        1.2578330000    -0.3667920000     1.7199630000 
 H        2.8100310000    -1.0103300000     2.2763660000 
 H        3.6523010000    -1.0283150000    -0.0561140000 
 H        1.1923460000     0.2894030000    -0.8894480000 
 H        1.4668560000    -1.3004400000    -1.0923970000 
 H        2.4563910000     1.6739630000     0.7748010000 
 H        5.4728550000    -0.2905680000    -0.3571210000 
 H        6.4514360000     0.7500590000     0.6875580000 
 H        6.1375550000     1.2245320000    -0.9721870000 
 H        3.8329420000     3.4647750000     0.9825790000 
 H        5.1509670000     3.4731850000    -0.2021090000 
 H        5.4839900000     3.0399050000     1.4659970000 
*
