! RI PBE def2-SVP def2-SVP/J NBO PAL2
% maxcore 2000
% output
    # printlevel mini
    print[ P_Basis ] 0
    print[ P_SCFInfo ] 1
    print[ P_SCFIterInfo ] 1
    print[ P_OrbEn ] 0
    print[ P_Cartesian ] 0
end
*xyz 0 1
 C        0.8829980000     0.5313990000     0.2745600000 
 C        2.3335350000     0.1064890000     0.0955000000 
 N        3.0886060000     0.0002220000     1.3426280000 
 C        2.5125160000    -1.1768770000    -0.6555680000 
 C        1.5559110000    -1.9192960000    -1.2169500000 
 C        1.8141790000    -3.1536280000    -1.9297120000 
 C        0.8717770000    -3.9048350000    -2.4988850000 
 H        0.8355580000     1.4760620000     0.8216520000 
 H        0.3244850000    -0.2165420000     0.8449700000 
 H        0.3787420000     0.6770230000    -0.6844320000 
 H        2.8418400000     0.8846790000    -0.4931090000 
 H        2.6712830000    -0.7077940000     1.9369460000 
 H        3.0514460000     0.8756590000     1.8513260000 
 H        3.5462930000    -1.5115520000    -0.7183070000 
 H        0.5159650000    -1.6062970000    -1.1567670000 
 H        2.8543740000    -3.4673410000    -1.9902640000 
 H       -0.1756280000    -3.6226320000    -2.4587040000 
 H        1.1149430000    -4.8220300000    -3.0209840000 
*
