! RI PBE def2-SVP def2-SVP/J NBO PAL2
% maxcore 2000
% output
    # printlevel mini
    print[ P_Basis ] 0
    print[ P_SCFInfo ] 1
    print[ P_SCFIterInfo ] 1
    print[ P_OrbEn ] 0
    print[ P_Cartesian ] 0
end
*xyz 0 1
 C        0.8029610000     0.0185780000     0.0586350000 
 C        2.3289690000     0.0653010000    -0.0376990000 
 N        3.0134060000    -0.6916910000     1.0078520000 
 C        2.7795190000    -0.4357560000    -1.3720580000 
 C        3.3434760000     0.3205560000    -2.3141150000 
 C        3.7402990000    -0.1566940000    -3.5883210000 
 C        4.0887490000    -0.5296950000    -4.6782790000 
 H        0.4728090000     0.3788630000     1.0370730000 
 H        0.4412690000    -1.0070070000    -0.0630880000 
 H        0.3331310000     0.6367460000    -0.7103890000 
 H        2.6518730000     1.1078930000     0.0590240000 
 H        2.7791270000    -1.6761160000     0.9336700000 
 H        2.6932870000    -0.3872220000     1.9202790000 
 H        2.6078080000    -1.4917900000    -1.5756140000 
 H        3.5235540000     1.3754360000    -2.1173760000 
 H        4.3956820000    -0.8685930000    -5.6391040000 
*
