! RI PBE def2-SVP def2-SVP/J NBO PAL2
% maxcore 2000
% output
    # printlevel mini
    print[ P_Basis ] 0
    print[ P_SCFInfo ] 1
    print[ P_SCFIterInfo ] 1
    print[ P_OrbEn ] 0
    print[ P_Cartesian ] 0
end
*xyz 0 1
 C        0.9673800000     0.0293170000     0.0721280000 
 C        2.4863370000     0.1031240000    -0.0748160000 
 N        3.2133470000     0.0577000000     1.1875060000 
 C        2.9912920000    -1.0026580000    -0.9782390000 
 C        3.4936890000    -0.7679470000    -2.1907320000 
 C        2.8853280000    -2.3299340000    -0.4683600000 
 C        2.7829440000    -3.4296510000     0.0103660000 
 H        0.6131530000     0.8407400000     0.7138240000 
 H        0.6709920000    -0.9197240000     0.5267990000 
 H        0.4667030000     0.1164000000    -0.8956150000 
 H        2.7445670000     1.0474230000    -0.5651670000 
 H        3.0852790000    -0.8504580000     1.6221040000 
 H        2.8353960000     0.7464070000     1.8275290000 
 H        3.5799890000     0.2451570000    -2.5662730000 
 H        3.8302150000    -1.5745630000    -2.8299590000 
 H        2.7014880000    -4.4116540000     0.4128250000 
*
