! RI PBE def2-SVP def2-SVP/J NBO PAL2
% maxcore 2000
% output
    # printlevel mini
    print[ P_Basis ] 0
    print[ P_SCFInfo ] 1
    print[ P_SCFIterInfo ] 1
    print[ P_OrbEn ] 0
    print[ P_Cartesian ] 0
end
*xyz 0 1
 C        3.0448410000    -1.1797560000    -0.5860590000 
 C        2.4996830000     0.1009300000     0.0409460000 
 N        1.0387290000     0.1262880000     0.0782030000 
 C        3.0729840000     0.4207190000     1.4448350000 
 C        2.6387170000     1.8322080000     1.8370600000 
 C        2.5582960000    -0.5663550000     2.4914970000 
 C        4.5996390000     0.3719130000     1.4134820000 
 H        2.5811820000    -1.3355940000    -1.5637300000 
 H        2.8134980000    -2.0547620000     0.0289200000 
 H        4.1256620000    -1.1494560000    -0.7373020000 
 H        2.8016570000     0.9389510000    -0.6003400000 
 H        0.6861780000    -0.7342580000     0.4822570000 
 H        0.6696070000     0.1692170000    -0.8636260000 
 H        1.5524370000     1.9236240000     1.8097640000 
 H        3.0586080000     2.5732080000     1.1496820000 
 H        2.9887280000     2.0761950000     2.8441050000 
 H        1.4737660000    -0.4967810000     2.6040920000 
 H        3.0012180000    -0.3447680000     3.4662480000 
 H        2.8175110000    -1.5995430000     2.2447880000 
 H        4.9995550000     0.9992040000     0.6104600000 
 H        4.9791220000    -0.6423980000     1.2713070000 
 H        5.0063840000     0.7452940000     2.3571120000 
*
