! RI PBE def2-SVP def2-SVP/J NBO PAL2
% maxcore 2000
% output
    # printlevel mini
    print[ P_Basis ] 0
    print[ P_SCFInfo ] 1
    print[ P_SCFIterInfo ] 1
    print[ P_OrbEn ] 0
    print[ P_Cartesian ] 0
end
*xyz 0 1
 C        3.5322420000     1.0721400000     0.8001420000 
 C        2.7492650000     0.7074590000    -0.4541770000 
 N        2.6293110000     1.8029370000    -1.4114780000 
 C        3.3270130000    -0.5445390000    -1.1475300000 
 C        2.3364630000    -1.1076410000    -2.1622830000 
 C        4.6421160000    -0.2639630000    -1.8057560000 
 C        5.8141900000    -0.7550640000    -1.4259810000 
 H        3.0919570000     1.9458030000     1.2880500000 
 H        4.5711610000     1.3079400000     0.5518060000 
 H        3.5400800000     0.2507370000     1.5227710000 
 H        1.7266440000     0.4454320000    -0.1573280000 
 H        3.5372810000     2.2263520000    -1.5689550000 
 H        2.0356610000     2.5314000000    -1.0350840000 
 H        3.4953420000    -1.2923080000    -0.3634910000 
 H        2.1042640000    -0.3568620000    -2.9203110000 
 H        1.4009370000    -1.3923200000    -1.6728640000 
 H        2.7426320000    -1.9911970000    -2.6592880000 
 H        4.6007050000     0.3829240000    -2.6813440000 
 H        5.9005120000    -1.4174630000    -0.5695800000 
 H        6.7288150000    -0.5214790000    -1.9594180000 
*
