! RI PBE def2-SVP def2-SVP/J NBO PAL2
% maxcore 2000
% output
    # printlevel mini
    print[ P_Basis ] 0
    print[ P_SCFInfo ] 1
    print[ P_SCFIterInfo ] 1
    print[ P_OrbEn ] 0
    print[ P_Cartesian ] 0
end
*xyz 0 1
 C        0.9691270000    -0.0191840000    -0.1670020000 
 C        2.4773640000    -0.0492140000     0.0444300000 
 N        2.9418330000     0.7546920000     1.1634810000 
 C        2.9994700000    -1.4928190000     0.1994880000 
 C        4.5248280000    -1.5603470000     0.1403600000 
 C        2.4956570000    -2.1010610000     1.4264910000 
 C        2.0932780000    -2.5854500000     2.4500160000 
 H        0.6236750000     1.0086980000    -0.3042630000 
 H        0.4510970000    -0.4393120000     0.6995650000 
 H        0.6735350000    -0.5931360000    -1.0504570000 
 H        2.9630960000     0.3470620000    -0.8554770000 
 H        2.5199140000     0.4182470000     2.0232760000 
 H        2.6551640000     1.7185370000     1.0473820000 
 H        2.5913850000    -2.0696900000    -0.6396820000 
 H        4.9582710000    -0.9502560000     0.9324330000 
 H        4.8771270000    -1.1779350000    -0.8207190000 
 H        4.8735660000    -2.5879700000     0.2524650000 
 H        1.7399230000    -3.0290310000     3.3506140000 
*
