! RI PBE def2-SVP def2-SVP/J NBO PAL2
% maxcore 2000
% output
    # printlevel mini
    print[ P_Basis ] 0
    print[ P_SCFInfo ] 1
    print[ P_SCFIterInfo ] 1
    print[ P_OrbEn ] 0
    print[ P_Cartesian ] 0
end
*xyz 0 1
 C        1.0365360000    -0.0220010000    -0.0497540000 
 C        2.5666780000    -0.0826890000    -0.0904980000 
 N        3.1256570000    -1.4187990000    -0.2661410000 
 C        3.0798590000     0.8008010000    -1.1310240000 
 C        3.4662890000     1.5360420000    -2.0079030000 
 C        3.9121930000     2.3669920000    -2.9927960000 
 C        4.3042460000     3.1015680000    -3.8647240000 
 H        0.6644620000    -0.6537400000     0.7607720000 
 H        0.6171410000    -0.3810590000    -0.9922580000 
 H        0.6831910000     0.9978230000     0.1169320000 
 H        2.9484430000     0.2950980000     0.8670130000 
 H        2.8478240000    -1.7951360000    -1.1652890000 
 H        2.7575250000    -2.0369510000     0.4474360000 
 H        4.6527440000     3.7497510000    -4.6332660000 
*
