! RI PBE def2-SVP def2-SVP/J NBO PAL2
% maxcore 2000
% output
    # printlevel mini
    print[ P_Basis ] 0
    print[ P_SCFInfo ] 1
    print[ P_SCFIterInfo ] 1
    print[ P_OrbEn ] 0
    print[ P_Cartesian ] 0
end
*xyz 0 1
 C        2.7677280000    -0.3778100000    -1.6341130000 
 C        2.5812880000     0.2440620000    -0.2564180000 
 N        1.1889070000     0.3472180000     0.1662490000 
 C        3.3430530000    -0.5264850000     0.8243100000 
 C        4.8303860000    -0.5970230000     0.6369110000 
 C        5.5701420000     0.7050890000     0.6447800000 
 C        5.4630610000    -1.7581810000     0.4950620000 
 H        2.2199760000     0.1882880000    -2.3924070000 
 H        2.3908110000    -1.4060030000    -1.6420550000 
 H        3.8203080000    -0.4099270000    -1.9273750000 
 H        2.9692110000     1.2691990000    -0.2825220000 
 H        0.7779910000    -0.5792630000     0.2216030000 
 H        0.6504390000     0.8577320000    -0.5240500000 
 H        2.9364540000    -1.5432230000     0.8780740000 
 H        3.1188010000    -0.0423000000     1.7819130000 
 H        5.2748710000     1.3368960000    -0.1990100000 
 H        6.6485350000     0.5519320000     0.5896210000 
 H        5.3461570000     1.2738140000     1.5532950000 
 H        4.9237500000    -2.6993450000     0.4949300000 
 H        6.5408210000    -1.8071710000     0.3813220000 
*
