! RI PBE def2-SVP def2-SVP/J NBO PAL2
% maxcore 2000
% output
    # printlevel mini
    print[ P_Basis ] 0
    print[ P_SCFInfo ] 1
    print[ P_SCFIterInfo ] 1
    print[ P_OrbEn ] 0
    print[ P_Cartesian ] 0
end
*xyz 0 1
 C        2.9703220000     1.1454420000    -0.3782280000 
 C        2.6393200000    -0.3345620000    -0.3543410000 
 N        3.0830790000    -1.0171770000     0.8477510000 
 C        2.4361710000    -2.3028060000     0.9842850000 
 C        4.5268150000    -1.1470140000     0.9170590000 
 C        4.9997990000    -1.5426650000     2.2780490000 
 C        5.8295940000    -2.5443070000     2.5308680000 
 H        2.5121390000     1.6155370000    -1.2515390000 
 H        4.0438150000     1.3360460000    -0.4374330000 
 H        2.5866820000     1.6357960000     0.5189300000 
 H        3.0385300000    -0.8242870000    -1.2637210000 
 H        1.5522650000    -0.4485280000    -0.4008940000 
 H        1.3530710000    -2.1693830000     1.0277960000 
 H        2.7587750000    -2.7876490000     1.9070300000 
 H        2.6651000000    -2.9874900000     0.1464730000 
 H        4.9644240000    -0.1727940000     0.6782330000 
 H        4.9120330000    -1.8625820000     0.1652110000 
 H        4.6246770000    -0.9284440000     3.0941210000 
 H        6.2083740000    -3.1797300000     1.7358340000 
 H        6.1653850000    -2.7635100000     3.5378460000 
*
