! RI PBE def2-SVP def2-SVP/J NBO PAL2
% maxcore 2000
% output
    # printlevel mini
    print[ P_Basis ] 0
    print[ P_SCFInfo ] 1
    print[ P_SCFIterInfo ] 1
    print[ P_OrbEn ] 0
    print[ P_Cartesian ] 0
end
*xyz 0 1
 C        3.1464950000    -0.9725590000    -0.8775400000 
 C        2.6680900000     0.0247950000     0.1584570000 
 N        3.1473690000     1.3779460000    -0.0722280000 
 C        2.5104030000     2.3215260000     0.8194490000 
 C        4.5925910000     1.5044060000    -0.0519410000 
 C        5.2379140000     1.1475000000     1.2179480000 
 C        5.7361150000     0.8424650000     2.2676840000 
 H        2.6316820000    -1.9256560000    -0.7389020000 
 H        4.2170690000    -1.1725950000    -0.7961580000 
 H        2.9363410000    -0.6129750000    -1.8875710000 
 H        2.9378640000    -0.3311570000     1.1686080000 
 H        1.5755130000     0.0748790000     0.1275340000 
 H        1.4278930000     2.2742490000     0.6817420000 
 H        2.8376480000     3.3361250000     0.5794130000 
 H        2.7303470000     2.1330410000     1.8831950000 
 H        4.8461770000     2.5406380000    -0.2968480000 
 H        5.0188410000     0.8886440000    -0.8481220000 
 H        6.1862490000     0.5767180000     3.1949800000 
*
