! RI PBE def2-SVP def2-SVP/J NBO PAL2
% maxcore 2000
% output
    # printlevel mini
    print[ P_Basis ] 0
    print[ P_SCFInfo ] 1
    print[ P_SCFIterInfo ] 1
    print[ P_OrbEn ] 0
    print[ P_Cartesian ] 0
end
*xyz 0 1
 C        4.2424060000     0.2566890000     1.6696070000 
 C        4.1331340000     1.6792490000     1.1541590000 
 N        4.0325640000     1.7694410000    -0.2903260000 
 C        3.7008800000     3.1094920000    -0.7396010000 
 C        2.2519880000     3.4878390000    -0.4858500000 
 C        5.1526900000     1.1897850000    -1.0115350000 
 C        6.5214560000     1.8312610000    -0.7958220000 
 H        4.1623410000     0.2480240000     2.7589280000 
 H        5.1962300000    -0.2079640000     1.4109360000 
 H        3.4399880000    -0.3616750000     1.2606330000 
 H        4.9749040000     2.2797430000     1.5471670000 
 H        3.2280730000     2.1263470000     1.5718300000 
 H        3.8841660000     3.1462070000    -1.8179580000 
 H        4.3605490000     3.8734950000    -0.2888350000 
 H        1.5824520000     2.7521930000    -0.9362370000 
 H        2.0374390000     4.4666780000    -0.9220810000 
 H        2.0184030000     3.5514200000     0.5788010000 
 H        4.9019440000     1.2302110000    -2.0764440000 
 H        5.2092820000     0.1274070000    -0.7593450000 
 H        6.5223610000     2.8877520000    -1.0748810000 
 H        7.2713360000     1.3267390000    -1.4103820000 
 H        6.8483150000     1.7590690000     0.2445070000 
*
