! RI PBE def2-SVP def2-SVP/J NBO PAL2
% maxcore 2000
% output
    # printlevel mini
    print[ P_Basis ] 0
    print[ P_SCFInfo ] 1
    print[ P_SCFIterInfo ] 1
    print[ P_OrbEn ] 0
    print[ P_Cartesian ] 0
end
*xyz 0 1
 C        3.2597480000    -2.0902090000    -2.3402360000 
 C        4.5766810000    -1.5433790000    -1.8262150000 
 N        4.6084370000    -1.5975800000    -0.3784390000 
 C        5.8169140000    -1.1326810000     0.3085000000 
 C        5.9866660000     0.3651970000     0.0720250000 
 C        7.0856880000    -1.8714670000    -0.1311360000 
 C        5.5827050000    -1.3783130000     1.7949250000 
 H        3.2103980000    -2.0295690000    -3.4296390000 
 H        2.4212210000    -1.5311440000    -1.9201910000 
 H        3.1356640000    -3.1415370000    -2.0623370000 
 H        4.6764230000    -0.4994510000    -2.1374590000 
 H        5.4045940000    -2.0925410000    -2.3049640000 
 H        4.4081600000    -2.5454310000    -0.0782640000 
 H        5.0718580000     0.8962730000     0.3435020000 
 H        6.2175390000     0.5887960000    -0.9719710000 
 H        6.8083890000     0.7533350000     0.6783670000 
 H        7.3007000000    -1.7056820000    -1.1890940000 
 H        6.9827670000    -2.9486930000     0.0306610000 
 H        7.9533110000    -1.5283350000     0.4385140000 
 H        4.6852880000    -0.8538900000     2.1294680000 
 H        6.4333690000    -1.0329410000     2.3867350000 
 H        5.4479690000    -2.4458780000     1.9970500000 
*
