! RI PBE def2-SVP def2-SVP/J NBO PAL2
% maxcore 2000
% output
    # printlevel mini
    print[ P_Basis ] 0
    print[ P_SCFInfo ] 1
    print[ P_SCFIterInfo ] 1
    print[ P_OrbEn ] 0
    print[ P_Cartesian ] 0
end
*xyz 0 1
 C        1.6192810000     1.2426220000     1.6497010000 
 C        2.9788460000     0.6617390000     1.3215430000 
 N        4.0357950000     1.5085140000     1.8404770000 
 C        5.3783060000     0.9469060000     1.7575860000 
 C        5.8437670000     0.8637430000     0.3080590000 
 C        6.3039120000     1.8199290000     2.5466850000 
 C        7.0314380000     1.4147680000     3.5773510000 
 H        0.8209680000     0.6245280000     1.2338610000 
 H        1.5243070000     2.2516500000     1.2430800000 
 H        1.4650260000     1.2987890000     2.7316240000 
 H        3.0856650000     0.5896000000     0.2353010000 
 H        3.0453660000    -0.3706880000     1.7107760000 
 H        3.8381800000     1.7204900000     2.8119620000 
 H        5.4156070000    -0.0707850000     2.1885760000 
 H        5.8105070000     1.8533660000    -0.1543680000 
 H        5.2142540000     0.1912560000    -0.2778300000 
 H        6.8677060000     0.4884280000     0.2620290000 
 H        6.3510170000     2.8572950000     2.2194280000 
 H        6.9956920000     0.3866280000     3.9254040000 
 H        7.6931590000     2.0903020000     4.1073640000 
*
