! RI PBE def2-SVP def2-SVP/J NBO PAL2
% maxcore 2000
% output
    # printlevel mini
    print[ P_Basis ] 0
    print[ P_SCFInfo ] 1
    print[ P_SCFIterInfo ] 1
    print[ P_OrbEn ] 0
    print[ P_Cartesian ] 0
end
*xyz 0 1
 C        1.6978000000    -0.3710730000    -0.1190110000 
 C        3.0792470000     0.1804000000     0.1635030000 
 N        3.0200210000     1.5830330000     0.5202990000 
 C        4.3119740000     2.1460240000     0.8663600000 
 C        4.2093370000     3.6119510000     1.1789140000 
 C        3.7073050000     4.4906160000     0.0783710000 
 C        4.5545750000     4.0805480000     2.3741740000 
 H        1.7509400000    -1.4197650000    -0.4189460000 
 H        1.2130060000     0.1950550000    -0.9169500000 
 H        1.0618540000    -0.3139670000     0.7695300000 
 H        3.7034840000     0.0902040000    -0.7327810000 
 H        3.5703360000    -0.4302570000     0.9429050000 
 H        2.3853250000     1.7083760000     1.3016100000 
 H        4.9684490000     2.0114200000    -0.0039020000 
 H        4.7953610000     1.6240780000     1.7093250000 
 H        2.7318430000     4.1453730000    -0.2722790000 
 H        4.3808540000     4.4464770000    -0.7844080000 
 H        3.6260520000     5.5298280000     0.3993530000 
 H        4.9179560000     3.4209640000     3.1552800000 
 H        4.4937800000     5.1379050000     2.6088530000 
*
