! RI PBE def2-SVP def2-SVP/J NBO PAL2
% maxcore 2000
% output
    # printlevel mini
    print[ P_Basis ] 0
    print[ P_SCFInfo ] 1
    print[ P_SCFIterInfo ] 1
    print[ P_OrbEn ] 0
    print[ P_Cartesian ] 0
end
*xyz 0 1
 C        1.3066370000    -0.2296220000     0.6114040000 
 C        2.7625660000     0.1001190000     0.3605440000 
 N        3.0803260000     0.0117840000    -1.0494650000 
 C        4.4552280000     0.3789890000    -1.3385190000 
 C        4.7149770000     0.4480370000    -2.7687910000 
 C        4.9234730000     0.5241760000    -3.9502130000 
 C        5.1767510000     0.6036450000    -5.3765450000 
 H        1.0780850000    -0.1947940000     1.6786320000 
 H        1.0683450000    -1.2266530000     0.2360270000 
 H        0.6489550000     0.4861930000     0.1091740000 
 H        3.3997630000    -0.6158740000     0.8926670000 
 H        2.9981560000     1.0942980000     0.7828970000 
 H        2.4575070000     0.6052560000    -1.5850120000 
 H        5.1128140000    -0.3741580000    -0.8871940000 
 H        4.7402160000     1.3444830000    -0.8810380000 
 H        5.9050410000    -0.1491110000    -5.6886670000 
 H        5.5669620000     1.5858900000    -5.6547650000 
 H        4.2582880000     0.4347310000    -5.9443280000 
*
