! RI PBE def2-SVP def2-SVP/J NBO PAL2
% maxcore 2000
% output
    # printlevel mini
    print[ P_Basis ] 0
    print[ P_SCFInfo ] 1
    print[ P_SCFIterInfo ] 1
    print[ P_OrbEn ] 0
    print[ P_Cartesian ] 0
end
*xyz 0 1
 C        1.1459580000     0.5881550000     1.0436780000 
 C        2.5516600000     0.3505140000     0.5332940000 
 N        3.3161120000    -0.4556050000     1.4622410000 
 C        4.6517090000    -0.7646170000     1.0020450000 
 C        5.3953200000    -1.6274620000     2.0125930000 
 C        6.7682770000    -1.9927920000     1.5571640000 
 C        7.8889040000    -1.6872200000     2.1960500000 
 H        0.5835210000     1.2233130000     0.3561480000 
 H        1.1692290000     1.0698670000     2.0232310000 
 H        0.5991070000    -0.3543700000     1.1442660000 
 H        3.0692500000     1.3096250000     0.4189000000 
 H        2.5094020000    -0.0979960000    -0.4761070000 
 H        2.8149960000    -1.3165930000     1.6531020000 
 H        5.1935950000     0.1781080000     0.8677140000 
 H        4.6576620000    -1.2668260000     0.0165930000 
 H        4.8152960000    -2.5465780000     2.1759000000 
 H        5.4375060000    -1.1040050000     2.9713810000 
 H        6.8318980000    -2.5460000000     0.6208960000 
 H        7.8737750000    -1.1357040000     3.1313350000 
 H        8.8598330000    -1.9783240000     1.8120750000 
*
