! RI PBE def2-SVP def2-SVP/J NBO PAL2
% maxcore 2000
% output
    # printlevel mini
    print[ P_Basis ] 0
    print[ P_SCFInfo ] 1
    print[ P_SCFIterInfo ] 1
    print[ P_OrbEn ] 0
    print[ P_Cartesian ] 0
end
*xyz 0 1
 C        1.2157450000     0.4086490000    -0.5756350000 
 C        2.7013220000     0.1770030000    -0.7532150000 
 N        3.3297260000    -0.1728040000     0.5052930000 
 C        4.7388800000    -0.4689260000     0.3840850000 
 C        5.3378590000    -0.7726470000     1.7543100000 
 C        6.7605610000    -1.0571660000     1.6952440000 
 C        7.9367220000    -1.2878050000     1.6254780000 
 H        0.7530590000     0.7057810000    -1.5189700000 
 H        1.0339730000     1.1916730000     0.1632500000 
 H        0.7130130000    -0.5013370000    -0.2341400000 
 H        3.1766970000     1.0937520000    -1.1193700000 
 H        2.8676330000    -0.5888430000    -1.5318320000 
 H        2.8472480000    -0.9679240000     0.9105010000 
 H        5.2399810000     0.4085290000    -0.0363510000 
 H        4.9523730000    -1.3081260000    -0.2994730000 
 H        4.8204540000    -1.6314030000     2.1988280000 
 H        5.1538200000     0.0781820000     2.4173730000 
 H        8.9796130000    -1.4917890000     1.5699360000 
*
