! RI PBE def2-SVP def2-SVP/J NBO PAL2
% maxcore 2000
% output
    # printlevel mini
    print[ P_Basis ] 0
    print[ P_SCFInfo ] 1
    print[ P_SCFIterInfo ] 1
    print[ P_OrbEn ] 0
    print[ P_Cartesian ] 0
end
*xyz 0 1
 C        3.6027010000    -1.4673270000     4.0116160000 
 C        4.2272070000    -2.2032610000     2.8446690000 
 N        3.5864320000    -1.8437060000     1.5970380000 
 C        4.1762190000    -2.4531290000     0.4176560000 
 C        3.6464680000    -3.8599690000     0.1720610000 
 C        2.1805230000    -3.8739810000    -0.2291460000 
 N        1.9977890000    -3.2553130000    -1.5361810000 
 H        4.0745430000    -1.7547820000     4.9536490000 
 H        2.5344480000    -1.6842680000     4.0768860000 
 H        3.7194170000    -0.3848080000     3.9004920000 
 H        4.1146420000    -3.2820560000     2.9944170000 
 H        5.3155650000    -2.0097180000     2.8217000000 
 H        3.5876550000    -0.8368870000     1.4997580000 
 H        5.2777540000    -2.4829400000     0.4811760000 
 H        3.9154700000    -1.8423900000    -0.4500770000 
 H        3.7798310000    -4.4748640000     1.0682330000 
 H        4.2464240000    -4.3339680000    -0.6144230000 
 H        1.6217740000    -3.2857420000     0.5040220000 
 H        1.7994300000    -4.9052270000    -0.1766010000 
 H        2.3563010000    -3.8582350000    -2.2671440000 
 H        1.0162090000    -3.1077490000    -1.7308890000 
*
