! RI PBE def2-SVP def2-SVP/J NBO PAL2
% maxcore 2000
% output
    # printlevel mini
    print[ P_Basis ] 0
    print[ P_SCFInfo ] 1
    print[ P_SCFIterInfo ] 1
    print[ P_OrbEn ] 0
    print[ P_Cartesian ] 0
end
*xyz 0 1
 C        0.9246490000    -0.1325430000     0.0251040000 
 C        2.4212630000    -0.0920600000    -0.0333380000 
 N        3.0595610000    -0.7727080000     0.9488880000 
 C        3.0925950000     0.5830000000    -1.0075160000 
 C        2.4482360000     1.3546760000    -2.1210990000 
 C        4.5051000000     0.5465680000    -0.9549660000 
 N        5.6577450000     0.4883800000    -0.8710130000 
 H        0.5791740000    -0.7217150000     0.8753450000 
 H        0.5094200000    -0.5765610000    -0.8815050000 
 H        0.5094340000     0.8722590000     0.1224570000 
 H        2.5435870000    -1.2609220000     1.6534080000 
 H        4.0647220000    -0.7967170000     0.9835080000 
 H        1.3614560000     1.3102860000    -2.0570270000 
 H        2.7391130000     0.9621480000    -3.0998160000 
 H        2.7391270000     2.4089010000    -2.0972710000 
*
