! RI PBE def2-SVP def2-SVP/J NBO PAL2
% maxcore 2000
% output
    # printlevel mini
    print[ P_Basis ] 0
    print[ P_SCFInfo ] 1
    print[ P_SCFIterInfo ] 1
    print[ P_OrbEn ] 0
    print[ P_Cartesian ] 0
end
*xyz 0 1
 C        3.8129660000     0.8941040000    -1.0350930000 
 C        3.4256200000     0.3134430000     0.3251560000 
 N        2.1665590000     0.8393380000     0.8515960000 
 C        3.3412620000    -1.1797990000     0.2537730000 
 C        4.1453560000    -2.0265380000     0.8815530000 
 C        4.0543470000    -3.5128900000     0.7861590000 
 N        5.3293830000    -4.0717830000     0.3542420000 
 H        3.8639430000     1.9858400000    -0.9871330000 
 H        3.0705320000     0.6247230000    -1.7931180000 
 H        4.7855420000     0.5212320000    -1.3663810000 
 H        4.2067400000     0.5721620000     1.0485900000 
 H        1.3986690000     0.5592020000     0.2503500000 
 H        2.1840440000     1.8531120000     0.8402610000 
 H        2.5490690000    -1.5771080000    -0.3844750000 
 H        4.9477790000    -1.6451430000     1.5107580000 
 H        3.2003840000    -3.7816280000     0.1454780000 
 H        3.8422490000    -3.9196250000     1.7821800000 
 H        5.5333320000    -3.7819310000    -0.5944210000 
 H        5.2987420000    -5.0834010000     0.3614240000 
*
