! RI PBE def2-SVP def2-SVP/J NBO PAL2
% maxcore 2000
% output
    # printlevel mini
    print[ P_Basis ] 0
    print[ P_SCFInfo ] 1
    print[ P_SCFIterInfo ] 1
    print[ P_OrbEn ] 0
    print[ P_Cartesian ] 0
end
*xyz 0 1
 C        1.9232420000    -1.0740090000    -0.2516720000 
 C        3.2337400000    -0.3443910000     0.0057110000 
 N        3.4995180000     0.7406240000    -0.9414930000 
 C        3.3800380000     0.2073260000     1.4068270000 
 C        2.3597590000     0.3888990000     2.2370330000 
 C        4.7945870000     0.5530370000     1.7809020000 
 N        4.8939900000     1.3234880000     3.0080870000 
 H        1.9242370000    -1.4936030000    -1.2610490000 
 H        1.0710500000    -0.3926380000    -0.1793810000 
 H        1.7668170000    -1.8918180000     0.4560560000 
 H        4.0508530000    -1.0669870000    -0.1316880000 
 H        2.7530200000     1.4250100000    -0.8852130000 
 H        3.5049500000     0.3843970000    -1.8901440000 
 H        1.3451580000     0.1248980000     1.9655720000 
 H        2.5277230000     0.7913670000     3.2286830000 
 H        5.2542090000     1.0357290000     0.9065330000 
 H        5.3390400000    -0.3889160000     1.9297750000 
 H        4.5179900000     2.2533860000     2.8640780000 
 H        5.8641790000     1.4345910000     3.2720940000 
*
