! RI PBE def2-SVP def2-SVP/J NBO PAL2
% maxcore 2000
% output
    # printlevel mini
    print[ P_Basis ] 0
    print[ P_SCFInfo ] 1
    print[ P_SCFIterInfo ] 1
    print[ P_OrbEn ] 0
    print[ P_Cartesian ] 0
end
*xyz 0 1
 C        1.0380800000    -0.0273060000     0.1823160000 
 C        2.5567820000     0.0510770000     0.0709820000 
 N        3.0734780000    -0.6735630000    -1.0889460000 
 C        3.0825200000     1.4913780000     0.0352980000 
 C        2.4637840000     2.3869710000     1.0986130000 
 C        4.6058920000     1.5138850000     0.1472900000 
 N        5.1347180000     2.8342340000    -0.1813970000 
 H        0.7117410000    -1.0701020000     0.1424190000 
 H        0.5629690000     0.5033080000    -0.6500400000 
 H        0.6633090000     0.4028780000     1.1132900000 
 H        2.9891830000    -0.4328170000     0.9579530000 
 H        2.6374920000    -0.3156410000    -1.9328790000 
 H        2.8217400000    -1.6531030000    -1.0309460000 
 H        2.8196290000     1.9007100000    -0.9535870000 
 H        2.5619450000     1.9335570000     2.0912580000 
 H        1.4041680000     2.5781450000     0.9206780000 
 H        2.9869650000     3.3443440000     1.1141070000 
 H        5.0159550000     0.7068360000    -0.4701010000 
 H        4.8762430000     1.2974170000     1.1878590000 
 H        5.0670460000     2.9935350000    -1.1799780000 
 H        6.1181500000     2.8877570000     0.0513900000 
*
