! RI PBE def2-SVP def2-SVP/J NBO PAL2
% maxcore 2000
% output
    # printlevel mini
    print[ P_Basis ] 0
    print[ P_SCFInfo ] 1
    print[ P_SCFIterInfo ] 1
    print[ P_OrbEn ] 0
    print[ P_Cartesian ] 0
end
*xyz 0 1
 C        2.9936430000    -1.3017470000    -0.5081710000 
 C        2.4046210000    -0.0654820000     0.1587220000 
 N        0.9736930000     0.0820350000    -0.1082730000 
 C        2.6204880000    -0.0222740000     1.6917540000 
 C        2.3096070000     1.3869630000     2.1976110000 
 C        4.0526000000    -0.3829600000     2.0614980000 
 N        1.7329480000    -1.0263770000     2.2860420000 
 H        2.7199070000    -1.3177690000    -1.5664250000 
 H        2.5979980000    -2.2051100000    -0.0359320000 
 H        4.0837420000    -1.3330960000    -0.4503020000 
 H        2.8959900000     0.8247670000    -0.2511550000 
 H        0.5248500000    -0.8204030000     0.0080340000 
 H        0.8243930000     0.3536350000    -1.0716790000 
 H        2.3746660000     1.4205460000     3.2888540000 
 H        1.3033370000     1.6817940000     1.8941150000 
 H        3.0152970000     2.1208660000     1.7960230000 
 H        4.2130320000    -0.2260250000     3.1324830000 
 H        4.2717950000    -1.4278310000     1.8372730000 
 H        4.7684690000     0.2462670000     1.5269440000 
 H        0.7856850000    -0.6648680000     2.2985910000 
 H        1.9944160000    -1.1900220000     3.2511020000 
*
