! RI PBE def2-SVP def2-SVP/J NBO PAL2
% maxcore 2000
% output
    # printlevel mini
    print[ P_Basis ] 0
    print[ P_SCFInfo ] 1
    print[ P_SCFIterInfo ] 1
    print[ P_OrbEn ] 0
    print[ P_Cartesian ] 0
end
*xyz 0 1
 C        1.0952840000     0.2052780000     0.3558040000 
 C        2.5431520000    -0.0353990000    -0.0797590000 
 N        2.7362910000    -1.2127870000    -0.9230770000 
 C        3.0724290000     1.1480550000    -0.7529780000 
 C        3.4722470000     2.1437330000    -1.2957970000 
 C        3.9729070000     3.3279800000    -1.9781360000 
 N        2.8933850000     4.2482260000    -2.3206050000 
 H        0.7169960000    -0.6685920000     0.8930080000 
 H        0.4608110000     0.3785450000    -0.5167110000 
 H        1.0183050000     1.0751390000     1.0116130000 
 H        3.1462600000    -0.1946730000     0.8232030000 
 H        2.2651890000    -1.0775430000    -1.8104020000 
 H        2.3133470000    -2.0202760000    -0.4796070000 
 H        4.5677350000     2.9931340000    -2.8426780000 
 H        4.6669160000     3.8507150000    -1.3109510000 
 H        2.2147730000     3.7781740000    -2.9070280000 
 H        3.2631020000     5.0267900000    -2.8524790000 
*
