! RI PBE def2-SVP def2-SVP/J NBO PAL2
% maxcore 2000
% output
    # printlevel mini
    print[ P_Basis ] 0
    print[ P_SCFInfo ] 1
    print[ P_SCFIterInfo ] 1
    print[ P_OrbEn ] 0
    print[ P_Cartesian ] 0
end
*xyz 0 1
 C        2.4187230000    -0.7323170000     1.1630200000 
 C        2.5416520000     0.1445430000    -0.0720630000 
 N        3.0161590000     1.4802240000     0.2168570000 
 C        2.1225500000     2.4800530000     0.5544810000 
 C        0.8002750000     2.3792150000     0.6875850000 
 C        4.3666380000     1.7599180000     0.2110480000 
 N        5.3528400000     0.9919100000     0.0023180000 
 H        2.0411390000    -1.7204160000     0.8907130000 
 H        1.7316870000    -0.2914340000     1.8873690000 
 H        3.3873870000    -0.8600950000     1.6503330000 
 H        1.5787990000     0.2386260000    -0.5789410000 
 H        3.2249750000    -0.3046380000    -0.7974460000 
 H        2.6064970000     3.4376430000     0.7194990000 
 H        0.2518870000     1.4555600000     0.5598340000 
 H        0.2313300000     3.2622610000     0.9413900000 
 H        4.5676400000     2.8125410000     0.4178860000 
 H        5.0756210000     0.0271250000    -0.1660710000 
*
