! RI PBE def2-SVP def2-SVP/J NBO PAL2
% maxcore 2000
% output
    # printlevel mini
    print[ P_Basis ] 0
    print[ P_SCFInfo ] 1
    print[ P_SCFIterInfo ] 1
    print[ P_OrbEn ] 0
    print[ P_Cartesian ] 0
end
*xyz 0 1
 C        2.6353030000    -0.6680060000    -0.8151510000 
 C        2.7045750000     0.2514960000     0.3967160000 
 N        3.3166310000     1.5365510000     0.1372100000 
 C        2.4564630000     2.5290470000    -0.4612500000 
 C        4.6903410000     1.6484130000     0.1144680000 
 C        5.2514040000     2.9976160000    -0.2372220000 
 N        5.5309290000     0.7246680000     0.3924190000 
 H        2.1680630000    -1.6189700000    -0.5483780000 
 H        3.6322040000    -0.8757690000    -1.2085420000 
 H        2.0432250000    -0.2182990000    -1.6155520000 
 H        3.2449110000    -0.2346510000     1.2137240000 
 H        1.6958910000     0.4415420000     0.7750930000 
 H        1.4813210000     2.5029590000     0.0312550000 
 H        2.2939780000     2.3680910000    -1.5359430000 
 H        2.8626600000     3.5291630000    -0.3291620000 
 H        4.8891570000     3.7757550000     0.4397730000 
 H        4.9883820000     3.2932400000    -1.2562800000 
 H        6.3333750000     2.9332090000    -0.1576550000 
 H        5.0799790000    -0.1622640000     0.5982780000 
*
