! RI PBE def2-SVP def2-SVP/J NBO PAL2
% maxcore 2000
% output
    # printlevel mini
    print[ P_Basis ] 0
    print[ P_SCFInfo ] 1
    print[ P_SCFIterInfo ] 1
    print[ P_OrbEn ] 0
    print[ P_Cartesian ] 0
end
*xyz 0 1
 C        3.3381100000    -1.1397090000     0.0468270000 
 C        2.8028220000     0.2314970000     0.4064100000 
 N        3.1681940000     1.2681190000    -0.5485780000 
 C        2.4667940000     2.5077140000    -0.2875190000 
 C        4.5900800000     1.4707240000    -0.6782140000 
 C        5.2564330000     1.9119430000     0.5640030000 
 N        5.7267700000     2.2474130000     1.5585290000 
 H        2.9042370000    -1.8897850000     0.7109250000 
 H        4.4226270000    -1.2076960000     0.1582540000 
 H        3.0771830000    -1.3999730000    -0.9814760000 
 H        3.1181320000     0.5009830000     1.4296200000 
 H        1.7099020000     0.1970470000     0.4170880000 
 H        1.3912290000     2.3243450000    -0.3164700000 
 H        2.7060160000     3.2386240000    -1.0634390000 
 H        2.7143180000     2.9494750000     0.6914290000 
 H        4.7783650000     2.2252060000    -1.4467500000 
 H        5.0756990000     0.5506450000    -1.0102180000 
*
