! RI PBE def2-SVP def2-SVP/J NBO PAL2
% maxcore 2000
% output
    # printlevel mini
    print[ P_Basis ] 0
    print[ P_SCFInfo ] 1
    print[ P_SCFIterInfo ] 1
    print[ P_OrbEn ] 0
    print[ P_Cartesian ] 0
end
*xyz 0 1
 C        2.0367970000     0.5122520000    -1.2954620000 
 C        2.3038510000     0.1076330000     0.1471310000 
 N        2.9543730000     1.1389640000     0.9210960000 
 C        2.1308700000     2.0400900000     1.6968400000 
 C        1.6331050000     1.4478480000     3.0056330000 
 C        4.3078230000     1.2949430000     0.8846030000 
 N        5.1958630000     0.6314740000     0.2577770000 
 H        1.5482470000    -0.2998120000    -1.8394480000 
 H        2.9678020000     0.7577690000    -1.8096480000 
 H        1.3860560000     1.3886380000    -1.3410540000 
 H        2.9172940000    -0.7989660000     0.1792770000 
 H        1.3648600000    -0.1474090000     0.6454270000 
 H        1.2804800000     2.3627320000     1.0844060000 
 H        2.7179840000     2.9398090000     1.8988570000 
 H        1.0398090000     0.5457660000     2.8380400000 
 H        1.0018060000     2.1661990000     3.5346920000 
 H        2.4714090000     1.1838400000     3.6537440000 
 H        4.6437170000     2.1297750000     1.5051810000 
 H        4.7971540000    -0.1223450000    -0.2986940000 
*
