! RI PBE def2-SVP def2-SVP/J NBO PAL2
% maxcore 2000
% output
    # printlevel mini
    print[ P_Basis ] 0
    print[ P_SCFInfo ] 1
    print[ P_SCFIterInfo ] 1
    print[ P_OrbEn ] 0
    print[ P_Cartesian ] 0
end
*xyz 0 1
 C        1.4462760000     0.8943200000     0.1472990000 
 C        2.6499700000    -0.0040800000    -0.0469460000 
 N        3.1751690000    -0.4646170000     1.2189080000 
 C        4.4703000000    -0.7812320000     1.4112430000 
 C        4.9832700000    -1.4492720000     2.4680810000 
 C        6.3704050000    -1.6683820000     2.5887280000 
 N        7.5044590000    -1.8596230000     2.7011460000 
 H        1.0583850000     1.2240810000    -0.8181240000 
 H        1.7061360000     1.7751020000     0.7374010000 
 H        0.6390850000     0.3648150000     0.6611650000 
 H        3.4494750000     0.5412540000    -0.5549730000 
 H        2.3828250000    -0.8511810000    -0.6935250000 
 H        2.5052630000    -0.8336970000     1.8754600000 
 H        5.1412900000    -0.4279730000     0.6335920000 
 H        4.3490920000    -1.8305240000     3.2611360000 
*
