! RI PBE def2-SVP def2-SVP/J NBO PAL2
% maxcore 2000
% output
    # printlevel mini
    print[ P_Basis ] 0
    print[ P_SCFInfo ] 1
    print[ P_SCFIterInfo ] 1
    print[ P_OrbEn ] 0
    print[ P_Cartesian ] 0
end
*xyz 0 1
 C        0.9038490000     0.0740490000     0.0540360000 
 C        2.4165220000     0.0410010000     0.0213620000 
 N        2.9551120000     1.3884810000    -0.0622880000 
 C        4.3974840000     1.4729490000    -0.0831750000 
 C        4.8554430000     2.9128000000    -0.2674610000 
 C        5.0240240000     0.8912410000     1.1247150000 
 N        5.4647920000     0.4420800000     2.0879890000 
 H        0.4976680000    -0.9386850000     0.0838530000 
 H        0.5070390000     0.5828320000    -0.8266950000 
 H        0.5415510000     0.5998510000     0.9422800000 
 H        2.7569660000    -0.5062150000    -0.8646560000 
 H        2.7972130000    -0.5076970000     0.8972860000 
 H        2.5911750000     1.9564670000     0.6953320000 
 H        4.7509570000     0.8752250000    -0.9315120000 
 H        4.5209930000     3.5319870000     0.5678550000 
 H        4.4259470000     3.3062530000    -1.1889240000 
 H        5.9430730000     2.9737690000    -0.3193060000 
*
