! RI PBE def2-SVP def2-SVP/J NBO PAL2
% maxcore 2000
% output
    # printlevel mini
    print[ P_Basis ] 0
    print[ P_SCFInfo ] 1
    print[ P_SCFIterInfo ] 1
    print[ P_OrbEn ] 0
    print[ P_Cartesian ] 0
end
*xyz 0 1
 C        1.2577730000    -0.2678420000     0.1959390000 
 C        2.6911520000     0.1999940000     0.3357980000 
 N        3.2819920000    -0.2851610000     1.5668600000 
 C        4.6831870000     0.0545790000     1.7131360000 
 C        5.1844230000    -0.2522170000     3.1219390000 
 C        4.6491070000     0.7457510000     4.1411950000 
 N        4.8687010000    -1.6436320000     3.4417900000 
 H        0.8064820000     0.1244590000    -0.7179010000 
 H        0.6602450000     0.0622300000     1.0483530000 
 H        1.2033190000    -1.3596730000     0.1485850000 
 H        2.7210890000     1.2951380000     0.3568700000 
 H        3.2683200000    -0.1071970000    -0.5551480000 
 H        3.1997400000    -1.2958900000     1.5926510000 
 H        4.7969250000     1.1265610000     1.5194570000 
 H        5.3181300000    -0.4750150000     0.9838650000 
 H        6.2770260000    -0.1758800000     3.0925000000 
 H        3.5561260000     0.7395000000     4.1313430000 
 H        4.9827580000     1.7635120000     3.9188050000 
 H        4.9895860000     0.4932900000     5.1489420000 
 H        3.8947980000    -1.7070960000     3.7193590000 
 H        5.4094070000    -1.9501920000     4.2408620000 
*
