! RI PBE def2-SVP def2-SVP/J NBO PAL2
% maxcore 2000
% output
    # printlevel mini
    print[ P_Basis ] 0
    print[ P_SCFInfo ] 1
    print[ P_SCFIterInfo ] 1
    print[ P_OrbEn ] 0
    print[ P_Cartesian ] 0
end
*xyz 0 1
 C        0.9350180000     0.0987800000    -0.0024340000 
 C        2.4481170000     0.0625340000     0.0150920000 
 N        2.9917600000     0.3958310000    -1.2887220000 
 C        4.4338250000     0.4406650000    -1.3165770000 
 C        4.9161600000     0.6843800000    -2.7447000000 
 C        6.3656190000     0.7127160000    -2.8406980000 
 N        7.5136780000     0.7305610000    -2.8976430000 
 H        0.5295450000    -0.1865530000     0.9701590000 
 H        0.5419580000    -0.5848770000    -0.7574400000 
 H        0.5669850000     1.1035620000    -0.2308390000 
 H        2.7911690000    -0.9459560000     0.2703420000 
 H        2.8276150000     0.7297300000     0.8085140000 
 H        2.6133360000     1.2875350000    -1.5902160000 
 H        4.8153780000    -0.5252020000    -0.9724510000 
 H        4.8668710000     1.2045570000    -0.6496140000 
 H        4.5302420000     1.6383500000    -3.1190280000 
 H        4.5275340000    -0.0987120000    -3.4008340000 
*
