! RI PBE def2-SVP def2-SVP/J NBO PAL2
% maxcore 2000
% output
    # printlevel mini
    print[ P_Basis ] 0
    print[ P_SCFInfo ] 1
    print[ P_SCFIterInfo ] 1
    print[ P_OrbEn ] 0
    print[ P_Cartesian ] 0
end
*xyz 0 1
 C        2.1726750000     0.3887950000    -3.5752980000 
 C        2.7911110000     0.5122370000    -2.1986980000 
 N        4.0582990000     1.2115010000    -2.2555440000 
 C        4.6615340000     1.4242260000    -0.9580740000 
 C        5.9858760000     2.1507230000    -1.0843130000 
 N        6.5879650000     2.3683310000     0.2128070000 
 C        7.8536730000     3.0631480000     0.1418960000 
 H        1.2330290000    -0.1659610000    -3.5325900000 
 H        2.8515320000    -0.1274380000    -4.2571670000 
 H        1.9549490000     1.3742940000    -3.9982190000 
 H        2.9783520000    -0.4863860000    -1.7878220000 
 H        2.0744170000     0.9978880000    -1.5117470000 
 H        3.9249260000     2.1054330000    -2.7158700000 
 H        4.8323790000     0.4401200000    -0.5026980000 
 H        4.0136460000     1.9820020000    -0.2605590000 
 H        5.8159920000     3.1337970000    -1.5426190000 
 H        6.6356660000     1.5916880000    -1.7794960000 
 H        6.7147420000     1.4775130000     0.6777980000 
 H        7.6924370000     4.0785130000    -0.2316160000 
 H        8.5946650000     2.5820360000    -0.5186990000 
 H        8.2878420000     3.1456370000     1.1403370000 
*
