! RI PBE def2-SVP def2-SVP/J NBO PAL2
% maxcore 2000
% output
    # printlevel mini
    print[ P_Basis ] 0
    print[ P_SCFInfo ] 1
    print[ P_SCFIterInfo ] 1
    print[ P_OrbEn ] 0
    print[ P_Cartesian ] 0
end
*xyz 0 1
 C        1.9257900000     0.5836110000     0.3402800000 
 C        3.3934290000     0.5027820000    -0.0304810000 
 N        4.0213850000    -0.6083940000     0.6410870000 
 C        5.2623840000    -0.8289720000     0.4433080000 
 C        6.1609190000    -0.0183290000    -0.4489310000 
 N        5.8602880000    -1.8763050000     1.0748670000 
 C        5.1317070000    -2.7419680000     1.9593500000 
 H        1.4372660000     1.4225350000    -0.1623310000 
 H        1.8120190000     0.7111470000     1.4190350000 
 H        1.4106580000    -0.3374570000     0.0588660000 
 H        3.8811220000     1.4553900000     0.2306310000 
 H        3.4811850000     0.4104580000    -1.1246770000 
 H        5.7795930000    -0.0228030000    -1.4727600000 
 H        7.1850130000    -0.3940920000    -0.4622770000 
 H        6.1809080000     1.0228790000    -0.1185590000 
 H        6.8341500000    -2.0424920000     0.9145250000 
 H        4.7041060000    -2.1817900000     2.7958520000 
 H        5.8085060000    -3.5038130000     2.3469300000 
 H        4.3018810000    -3.2291970000     1.4393760000 
*
