! RI PBE def2-SVP def2-SVP/J NBO PAL2
% maxcore 2000
% output
    # printlevel mini
    print[ P_Basis ] 0
    print[ P_SCFInfo ] 1
    print[ P_SCFIterInfo ] 1
    print[ P_OrbEn ] 0
    print[ P_Cartesian ] 0
end
*xyz 0 1
 C        2.6746460000    -2.2664760000     0.8201570000 
 C        2.8758440000    -0.8788500000     0.2277330000 
 N        3.2868880000    -0.8723200000    -1.1549640000 
 C        2.3453720000    -1.2995080000    -2.1570520000 
 C        4.6069380000    -0.8097480000    -1.4740410000 
 N        5.0680300000    -1.0530660000    -2.6301780000 
 C        6.4766950000    -0.8586440000    -2.8320480000 
 H        2.3666900000    -2.1935290000     1.8662170000 
 H        3.5991010000    -2.8471030000     0.7752710000 
 H        1.9009840000    -2.8205550000     0.2839340000 
 H        3.6332410000    -0.3383430000     0.8027040000 
 H        1.9476270000    -0.3024210000     0.3144670000 
 H        1.3481350000    -0.9431280000    -1.8886370000 
 H        2.3120180000    -2.3902250000    -2.2691630000 
 H        2.6384020000    -0.8810900000    -3.1194790000 
 H        5.2423150000    -0.5013060000    -0.6304240000 
 H        6.6487940000    -0.0916000000    -3.5946430000 
 H        6.9339920000    -1.7802230000    -3.2062210000 
 H        7.0170770000    -0.5551350000    -1.9207420000 
*
