! RI PBE def2-SVP def2-SVP/J NBO PAL2
% maxcore 2000
% output
    # printlevel mini
    print[ P_Basis ] 0
    print[ P_SCFInfo ] 1
    print[ P_SCFIterInfo ] 1
    print[ P_OrbEn ] 0
    print[ P_Cartesian ] 0
end
*xyz 0 1
 C        2.8772070000     0.5893060000    -0.1897440000 
 C        1.3989340000     0.4078160000    -0.4971050000 
 N        0.9727700000    -0.9738890000    -0.5601210000 
 C        0.8046510000    -1.7175380000     0.6682650000 
 C       -0.6239690000    -2.1887270000     0.8990940000 
 N        1.2428330000    -1.5748770000    -1.7163710000 
 C        1.1626250000    -2.8409610000    -1.8625170000 
 H        3.1383430000     1.6504270000    -0.1694550000 
 H        3.4842710000     0.1011330000    -0.9548170000 
 H        3.1414690000     0.1622390000     0.7814120000 
 H        1.1607860000     0.8538840000    -1.4642710000 
 H        0.7867150000     0.9159890000     0.2544390000 
 H        1.1133270000    -1.0702300000     1.4928460000 
 H        1.4951750000    -2.5728380000     0.6718490000 
 H       -1.2991890000    -1.3350600000     0.9860710000 
 H       -0.6901470000    -2.7731840000     1.8204060000 
 H       -0.9799500000    -2.8101190000     0.0761280000 
 H        1.3894830000    -3.2304820000    -2.8474540000 
 H        0.8757450000    -3.5452890000    -1.0827440000 
*
