! RI PBE def2-SVP def2-SVP/J NBO PAL2
% maxcore 2000
% output
    # printlevel mini
    print[ P_Basis ] 0
    print[ P_SCFInfo ] 1
    print[ P_SCFIterInfo ] 1
    print[ P_OrbEn ] 0
    print[ P_Cartesian ] 0
end
*xyz 0 1
 C        2.5011980000    -0.9902000000     0.6483950000 
 C        2.9593890000     0.1222910000    -0.2771600000 
 N        3.0807930000     1.3702270000     0.4366540000 
 C        4.1909800000     1.9654320000     0.3950930000 
 N        4.4080050000     3.2140200000     0.9568960000 
 C        3.7467430000     3.5780070000     2.1802870000 
 C        5.2142630000     3.3430890000     2.1544870000 
 H        2.3473650000    -1.9176730000     0.0917530000 
 H        1.5628050000    -0.7184210000     1.1357400000 
 H        3.2435020000    -1.1780830000     1.4279310000 
 H        2.2115940000     0.2584260000    -1.0668430000 
 H        3.9012120000    -0.1630950000    -0.7737430000 
 H        5.0681570000     1.5758740000    -0.1397600000 
 H        3.1184430000     2.8201180000     2.6360820000 
 H        3.3671700000     4.5926380000     2.2234030000 
 H        5.5765000000     2.4295440000     2.6175580000 
 H        5.9039720000     4.1797960000     2.1717460000 
*
