! RI PBE def2-SVP def2-SVP/J NBO PAL2
% maxcore 2000
% output
    # printlevel mini
    print[ P_Basis ] 0
    print[ P_SCFInfo ] 1
    print[ P_SCFIterInfo ] 1
    print[ P_OrbEn ] 0
    print[ P_Cartesian ] 0
end
*xyz 0 1
 C        1.0871550000     0.0592980000    -0.0290640000 
 C        2.4091480000     0.2053690000     0.0134940000 
 N        3.2559580000    -0.5029320000     0.8369310000 
 C        4.6308760000    -0.3699210000     0.9000540000 
 N        5.3928450000     0.4053800000     0.2383340000 
 C        5.2159360000    -1.2625810000     1.8693570000 
 C        5.6726630000    -2.0168210000     2.6830380000 
 H        0.4992540000     0.6592190000    -0.7081540000 
 H        0.5627670000    -0.6502980000     0.6010880000 
 H        2.9007170000     0.9245100000    -0.6307950000 
 H        2.8476870000    -1.1843720000     1.4556000000 
 H        4.8777510000     0.9898520000    -0.4151350000 
 H        6.1012550000    -2.6774030000     3.3998510000 
*
