! RI PBE def2-SVP def2-SVP/J NBO PAL2
% maxcore 2000
% output
    # printlevel mini
    print[ P_Basis ] 0
    print[ P_SCFInfo ] 1
    print[ P_SCFIterInfo ] 1
    print[ P_OrbEn ] 0
    print[ P_Cartesian ] 0
end
*xyz 0 1
 C        0.8158500000    -0.1053510000    -0.0584800000 
 C        2.3460090000    -0.0208770000    -0.0574040000 
 N        2.9475450000    -0.8328980000    -1.1072570000 
 C        2.7853710000     1.4349180000    -0.3146100000 
 N        2.4363700000     1.8663880000    -1.6618280000 
 C        2.8625990000    -0.4307570000     1.2924090000 
 C        3.8521420000    -1.2814660000     1.5242240000 
 H        0.4298440000     0.2872770000    -1.0018680000 
 H        0.3778220000     0.4734410000     0.7605710000 
 H        0.4913560000    -1.1431570000     0.0524580000 
 H        2.5542540000    -0.5350550000    -1.9937730000 
 H        2.6845030000    -1.8041630000    -0.9812290000 
 H        3.8619970000     1.4951480000    -0.1211130000 
 H        2.2858510000     2.0804570000     0.4130090000 
 H        3.2288520000     1.7816180000    -2.2830140000 
 H        2.1415730000     2.8314790000    -1.6799730000 
 H        2.3563840000     0.0381760000     2.1344610000 
 H        4.3891360000    -1.7546090000     0.7098900000 
 H        4.1618330000    -1.5179580000     2.5357280000 
*
