! RI PBE def2-SVP def2-SVP/J NBO PAL2
% maxcore 2000
% output
    # printlevel mini
    print[ P_Basis ] 0
    print[ P_SCFInfo ] 1
    print[ P_SCFIterInfo ] 1
    print[ P_OrbEn ] 0
    print[ P_Cartesian ] 0
end
*xyz 0 1
 C        0.9439640000    -0.2021130000     0.1100340000 
 C        2.4714670000    -0.1608100000     0.0010450000 
 N        3.0882070000    -1.4908600000     0.0119860000 
 C        2.8756020000     0.5196100000    -1.3313400000 
 N        4.2886480000     0.6699680000    -1.5628370000 
 C        3.0172710000     0.6097740000     1.1194070000 
 C        3.4502280000     1.2634940000     2.0289350000 
 H        0.5309570000    -0.7536010000    -0.7398310000 
 H        0.5170970000     0.8032590000     0.1069490000 
 H        0.6364700000    -0.7018270000     1.0306420000 
 H        2.5751070000    -2.1029570000    -0.6134540000 
 H        3.0415990000    -1.8969790000     0.9383240000 
 H        2.3921940000     1.4985420000    -1.3863730000 
 H        2.4461600000    -0.0914320000    -2.1352890000 
 H        4.7424750000    -0.2188770000    -1.3790640000 
 H        4.6758040000     1.3308390000    -0.8990000000 
 H        3.8343500000     1.8379710000     2.8385680000 
*
