! RI PBE def2-SVP def2-SVP/J NBO PAL2
% maxcore 2000
% output
    # printlevel mini
    print[ P_Basis ] 0
    print[ P_SCFInfo ] 1
    print[ P_SCFIterInfo ] 1
    print[ P_OrbEn ] 0
    print[ P_Cartesian ] 0
end
*xyz 0 1
 C        2.8965890000     1.4118590000     0.3290080000 
 C        2.5354500000    -0.0035100000    -0.0956000000 
 N        2.9869140000    -0.3606440000    -1.4371410000 
 C        3.0313010000    -1.0765000000     0.9011630000 
 N        2.4947050000    -2.4005740000     0.6121950000 
 C        4.5286170000    -1.1642060000     0.9262570000 
 C        5.3099140000    -0.6690760000     1.8747840000 
 H        2.4772260000     2.1416450000    -0.3684430000 
 H        3.9814820000     1.5452080000     0.3521330000 
 H        2.5114590000     1.6407320000     1.3273290000 
 H        1.4422020000    -0.0956660000    -0.1028030000 
 H        3.9596360000    -0.1004410000    -1.5579810000 
 H        2.4621840000     0.1481670000    -2.1370140000 
 H        2.6908220000    -0.7815030000     1.8996440000 
 H        2.5991300000    -2.5639190000    -0.3857280000 
 H        1.4990670000    -2.4155480000     0.8010240000 
 H        4.9779070000    -1.6928920000     0.0872800000 
 H        4.8981350000    -0.1557400000     2.7386870000 
 H        6.3886500000    -0.7683820000     1.8323850000 
*
