! RI PBE def2-SVP def2-SVP/J NBO PAL2
% maxcore 2000
% output
    # printlevel mini
    print[ P_Basis ] 0
    print[ P_SCFInfo ] 1
    print[ P_SCFIterInfo ] 1
    print[ P_OrbEn ] 0
    print[ P_Cartesian ] 0
end
*xyz 0 1
 C        0.9661730000    -0.0510210000    -0.0074690000 
 C        2.4811170000     0.0451110000     0.0948910000 
 N        2.9937180000     1.3850470000     0.3333960000 
 C        3.0567030000    -0.8944680000     1.1807080000 
 N        4.5095030000    -0.9640970000     1.1944840000 
 C        2.5655800000    -0.4979750000     2.5019780000 
 C        2.1470840000    -0.1369170000     3.5679750000 
 H        0.5956640000     0.5836300000    -0.8163990000 
 H        0.4971490000     0.2745000000     0.9247030000 
 H        0.6408130000    -1.0760590000    -0.2094140000 
 H        2.9211640000    -0.3003110000    -0.8486760000 
 H        2.5543770000     1.7791370000     1.1590130000 
 H        2.7785340000     1.9960560000    -0.4437660000 
 H        2.6756820000    -1.9032090000     0.9814620000 
 H        4.8648110000    -0.0126050000     1.1902880000 
 H        4.8275000000    -1.3963470000     0.3345740000 
 H        1.7904380000     0.1612270000     4.5254620000 
*
