! RI PBE def2-SVP def2-SVP/J NBO PAL2
% maxcore 2000
% output
    # printlevel mini
    print[ P_Basis ] 0
    print[ P_SCFInfo ] 1
    print[ P_SCFIterInfo ] 1
    print[ P_OrbEn ] 0
    print[ P_Cartesian ] 0
end
*xyz 0 1
 C        0.7584840000    -0.3946370000    -0.1114450000 
 C        2.2133670000     0.0474420000    -0.0023780000 
 N        2.2971750000     1.4384990000     0.4010030000 
 C        3.3302680000     2.2450010000     0.0006120000 
 N        3.7024840000     3.3606950000     0.4736850000 
 C        2.9681600000    -0.8376040000     0.8914570000 
 C        3.5744770000    -1.5488130000     1.6448050000 
 H        0.2325020000     0.2412590000    -0.8247360000 
 H        0.2625510000    -0.3205760000     0.8589630000 
 H        0.6983240000    -1.4328770000    -0.4398180000 
 H        2.6686170000    -0.0125090000    -0.9970420000 
 H        1.8905440000     1.6504340000     1.3007290000 
 H        3.8530660000     1.8547070000    -0.8764500000 
 H        3.1550530000     3.6290420000     1.2921900000 
 H        4.1206380000    -2.1764610000     2.3090340000 
*
