! RI PBE def2-SVP def2-SVP/J NBO PAL2
% maxcore 2000
% output
    # printlevel mini
    print[ P_Basis ] 0
    print[ P_SCFInfo ] 1
    print[ P_SCFIterInfo ] 1
    print[ P_OrbEn ] 0
    print[ P_Cartesian ] 0
end
*xyz 0 1
 C        1.2056260000     0.4050720000    -0.2246920000 
 C        2.6678600000     0.1329990000     0.0615450000 
 N        3.1406080000    -0.9935250000    -0.7201630000 
 C        4.3471350000    -1.3401400000    -0.5846930000 
 N        4.8820280000    -2.3886630000    -1.2784040000 
 C        6.1849790000    -2.8155740000    -1.1757070000 
 C        6.7271460000    -3.8337110000    -1.8410330000 
 H        0.8439480000     1.2532100000     0.3616800000 
 H        0.5987580000    -0.4692290000     0.0199050000 
 H        1.0580480000     0.6277680000    -1.2835320000 
 H        2.7974030000    -0.0626190000     1.1350070000 
 H        3.2559460000     1.0327230000    -0.1664910000 
 H        5.0673380000    -0.8494280000     0.0843880000 
 H        4.2519080000    -2.8669720000    -1.9048410000 
 H        6.7770690000    -2.2338430000    -0.4756100000 
 H        6.1594260000    -4.4308080000    -2.5454380000 
 H        7.7654840000    -4.0875780000    -1.6865330000 
*
