! RI PBE def2-SVP def2-SVP/J NBO PAL2
% maxcore 2000
% output
    # printlevel mini
    print[ P_Basis ] 0
    print[ P_SCFInfo ] 1
    print[ P_SCFIterInfo ] 1
    print[ P_OrbEn ] 0
    print[ P_Cartesian ] 0
end
*xyz 0 1
 C        2.1148690000    -0.7199890000    -1.0455610000 
 C        2.0657920000     0.6279180000    -0.3418410000 
 N        2.5243820000     0.6099740000     1.0320060000 
 C        1.7125390000    -0.0732500000     2.0014000000 
 N        3.8652190000     0.5742650000     1.1352330000 
 C        4.4426820000     0.1649640000     2.1962810000 
 C        5.9275050000     0.2104350000     2.3001210000 
 H        1.7816640000    -0.6229600000    -2.0818900000 
 H        1.4695230000    -1.4545220000    -0.5566950000 
 H        3.1353390000    -1.1090530000    -1.0505410000 
 H        1.0450240000     1.0226630000    -0.3468960000 
 H        2.6972410000     1.3461980000    -0.8679460000 
 H        0.6675150000     0.0052380000     1.7021460000 
 H        1.8168760000     0.3904800000     2.9872080000 
 H        1.9728080000    -1.1389800000     2.1018510000 
 H        3.8887460000    -0.2080480000     3.0605600000 
 H        6.3572800000     0.5795050000     1.3686920000 
 H        6.3400780000    -0.7815410000     2.5111930000 
 H        6.2483190000     0.8662110000     3.1167890000 
*
