! RI PBE def2-SVP def2-SVP/J NBO PAL2
% maxcore 2000
% output
    # printlevel mini
    print[ P_Basis ] 0
    print[ P_SCFInfo ] 1
    print[ P_SCFIterInfo ] 1
    print[ P_OrbEn ] 0
    print[ P_Cartesian ] 0
end
*xyz 0 1
 C        0.6864790000     0.9342530000    -1.0437480000 
 C        2.0454980000     1.3312550000    -1.5779470000 
 N        3.0934920000     0.6307350000    -0.8781850000 
 C        4.4038570000     0.8094560000    -1.1682030000 
 N        4.8053400000     1.6023940000    -2.0728490000 
 C        6.2356340000     1.7027870000    -2.2848050000 
 C        6.5420600000     2.6856400000    -3.3964530000 
 H       -0.1018520000     1.4674840000    -1.5770430000 
 H        0.5917110000     1.1754740000     0.0187300000 
 H        0.5079330000    -0.1372890000    -1.1700150000 
 H        2.2025590000     2.4108640000    -1.4768770000 
 H        2.1199230000     1.1157410000    -2.6496050000 
 H        2.8465910000    -0.0128100000    -0.1499460000 
 H        5.0751530000     0.2014030000    -0.5440910000 
 H        6.6610080000     0.7224730000    -2.5443700000 
 H        6.7437110000     2.0296290000    -1.3659240000 
 H        6.0699390000     2.3667240000    -4.3282990000 
 H        7.6191880000     2.7678160000    -3.5631520000 
 H        6.1526970000     3.6754720000    -3.1483280000 
*
