! RI PBE def2-SVP def2-SVP/J NBO PAL2
% maxcore 2000
% output
    # printlevel mini
    print[ P_Basis ] 0
    print[ P_SCFInfo ] 1
    print[ P_SCFIterInfo ] 1
    print[ P_OrbEn ] 0
    print[ P_Cartesian ] 0
end
*xyz 0 1
 C        1.0957470000    -0.5501630000     0.3625630000 
 C        2.5320090000    -0.2252080000     0.0107210000 
 N        2.9395440000     1.0133500000     0.6222990000 
 C        4.2081970000     1.5173490000     0.5066250000 
 N        5.1278880000     1.0719810000    -0.2564810000 
 C        4.4598610000     2.7267280000     1.3731740000 
 C        5.8363100000     3.3350090000     1.2040920000 
 H        0.7877110000    -1.4831640000    -0.1115280000 
 H        0.4216370000     0.2408320000     0.0256080000 
 H        0.9720900000    -0.6705820000     1.4425520000 
 H        2.6315790000    -0.1383020000    -1.0777630000 
 H        3.1905020000    -1.0490240000     0.3226350000 
 H        2.3893670000     1.3363010000     1.4001170000 
 H        4.8251730000     0.2509650000    -0.7755660000 
 H        4.3028580000     2.4323000000     2.4187060000 
 H        3.6838690000     3.4690930000     1.1525170000 
 H        6.6145670000     2.6089620000     1.4401340000 
 H        5.9527430000     4.2008990000     1.8598360000 
 H        5.9968470000     3.6522720000     0.1733680000 
*
