! RI PBE def2-SVP def2-SVP/J NBO PAL2
% maxcore 2000
% output
    # printlevel mini
    print[ P_Basis ] 0
    print[ P_SCFInfo ] 1
    print[ P_SCFIterInfo ] 1
    print[ P_OrbEn ] 0
    print[ P_Cartesian ] 0
end
*xyz 0 1
 C        2.0721400000    -1.3868170000     0.9051760000 
 C        3.0023510000    -0.7148970000    -0.0821700000 
 N        3.9346680000     0.1431870000     0.5976840000 
 C        4.8877530000     0.8718910000    -0.0453260000 
 N        5.0921590000     0.9028600000    -1.3113560000 
 C        5.7768300000     1.7102190000     0.7829700000 
 C        5.7616630000     1.8462640000     2.1031760000 
 H        1.3678710000    -2.0359290000     0.3831410000 
 H        1.4939330000    -0.6481200000     1.4664200000 
 H        2.6304360000    -2.0015570000     1.6160830000 
 H        2.4163620000    -0.1325290000    -0.8059340000 
 H        3.5453350000    -1.4770250000    -0.6572460000 
 H        3.8741930000     0.2023520000     1.5973410000 
 H        4.4425250000     0.3017650000    -1.8137970000 
 H        6.5015510000     2.2503080000     0.1839920000 
 H        5.0602590000     1.3318430000     2.7528260000 
 H        6.4706600000     2.4965770000     2.6009190000 
*
