! RI PBE def2-SVP def2-SVP/J NBO PAL2
% maxcore 2000
% output
    # printlevel mini
    print[ P_Basis ] 0
    print[ P_SCFInfo ] 1
    print[ P_SCFIterInfo ] 1
    print[ P_OrbEn ] 0
    print[ P_Cartesian ] 0
end
*xyz 0 1
 C        1.0221140000    -0.2027430000    -0.0013060000 
 C        2.3322080000     0.0645090000    -0.0255940000 
 N        3.1655970000     0.2703850000     1.0667600000 
 C        2.7425360000     0.5675500000     2.3432730000 
 N        3.4458730000     0.6572760000     3.3899760000 
 C        3.0087550000     0.1686180000    -1.2862480000 
 N        3.5825320000     0.2388890000    -2.2815410000 
 H        0.4765420000    -0.3362450000     0.9221980000 
 H        0.4801530000    -0.2854900000    -0.9315210000 
 H        4.1579690000     0.2088950000     0.9033490000 
 H        1.6732250000     0.7651090000     2.4071580000 
 H        4.4287870000     0.4417570000     3.2204060000 
*
