! RI PBE def2-SVP def2-SVP/J NBO PAL2
% maxcore 2000
% output
    # printlevel mini
    print[ P_Basis ] 0
    print[ P_SCFInfo ] 1
    print[ P_SCFIterInfo ] 1
    print[ P_OrbEn ] 0
    print[ P_Cartesian ] 0
end
*xyz 0 1
 C        1.0546930000    -0.0049330000     0.0708780000 
 C        2.3696030000    -0.1975090000     0.0675350000 
 N        3.2839600000     0.6431280000    -0.5378100000 
 C        4.6468950000     0.4630980000    -0.5532810000 
 N        5.3694660000    -0.4524650000    -0.0538980000 
 C        5.3190480000     1.5296380000    -1.2759730000 
 N        5.8134720000     2.3905180000    -1.8548220000 
 H        0.4076010000    -0.7121050000     0.5687140000 
 H        0.5927580000     0.8478070000    -0.4137130000 
 H        2.8028650000    -1.0592580000     0.5603720000 
 H        2.9288740000     1.4594740000    -1.0099470000 
 H        4.8268670000    -1.1600030000     0.4345550000 
*
