! RI PBE def2-SVP def2-SVP/J NBO PAL2
% maxcore 2000
% output
    # printlevel mini
    print[ P_Basis ] 0
    print[ P_SCFInfo ] 1
    print[ P_SCFIterInfo ] 1
    print[ P_OrbEn ] 0
    print[ P_Cartesian ] 0
end
*xyz 0 1
 C        0.7883510000     0.1435500000    -0.4966850000 
 C        2.2108700000     0.1207800000     0.0486100000 
 N        2.2344480000    -0.1777320000     1.4594890000 
 C        3.2079020000     0.3188690000     2.2937820000 
 N        3.5072830000    -0.0440300000     3.4678880000 
 C        3.0386460000    -0.8209920000    -0.7288220000 
 N        3.6684440000    -1.5777940000    -1.3224250000 
 H        0.2083860000     0.8926110000     0.0428010000 
 H        0.3122110000    -0.8307370000    -0.3695250000 
 H        0.7874900000     0.3829440000    -1.5606330000 
 H        2.6568300000     1.1123770000    -0.0783630000 
 H        1.8069830000    -1.0506210000     1.7324140000 
 H        3.7433210000     1.1664280000     1.8580930000 
 H        2.9574360000    -0.8456530000     3.7779760000 
*
