! RI PBE def2-SVP def2-SVP/J NBO PAL2
% maxcore 2000
% output
    # printlevel mini
    print[ P_Basis ] 0
    print[ P_SCFInfo ] 1
    print[ P_SCFIterInfo ] 1
    print[ P_OrbEn ] 0
    print[ P_Cartesian ] 0
end
*xyz 0 1
 C        1.5279020000     0.0990410000     1.3520070000 
 C        2.7938600000     0.2525380000     0.5913400000 
 N        3.9171920000     0.2067700000     1.1712690000 
 N        4.9919480000     0.3668620000     0.2607370000 
 C        6.1282990000    -0.4802860000     0.6477240000 
 C        6.1814200000     0.9671560000     0.8967120000 
 C        6.1431570000     1.5302420000     2.2853450000 
 H        0.9593350000    -0.7576780000     0.9774080000 
 H        0.8932520000     0.9805070000     1.2187430000 
 H        1.7311100000    -0.0411110000     2.4131770000 
 H        2.7456790000     0.4056070000    -0.4915700000 
 H        6.6571030000    -0.9352640000    -0.1821480000 
 H        5.9658390000    -1.1173700000     1.5111970000 
 H        6.7256560000     1.5739210000     0.1777960000 
 H        5.6112990000     0.8730960000     2.9709240000 
 H        5.6476170000     2.5047670000     2.2974230000 
 H        7.1640230000     1.6686130000     2.6507150000 
*
