! RI PBE def2-SVP def2-SVP/J NBO PAL2
% maxcore 2000
% output
    # printlevel mini
    print[ P_Basis ] 0
    print[ P_SCFInfo ] 1
    print[ P_SCFIterInfo ] 1
    print[ P_OrbEn ] 0
    print[ P_Cartesian ] 0
end
*xyz 0 1
 C        1.6666020000    -0.2778370000    -2.2544870000 
 C        2.6359350000    -0.2300480000    -1.1306860000 
 N        3.8143410000    -0.6710320000    -1.2617340000 
 N        4.5675570000    -0.5365810000    -0.0682740000 
 C        5.4623960000    -1.6880080000     0.1111820000 
 C        6.0139840000    -0.3992340000    -0.3301120000 
 C        6.5579970000    -0.2067060000    -1.7135240000 
 H        1.3118590000     0.7289070000    -2.4956330000 
 H        0.7856020000    -0.8630990000    -1.9736620000 
 H        2.1242760000    -0.7197000000    -3.1389670000 
 H        2.3163320000     0.1941890000    -0.1734360000 
 H        5.3819010000    -2.4664030000    -0.6408010000 
 H        5.5612890000    -2.0292200000     1.1354470000 
 H        6.4750080000     0.2281630000     0.4281900000 
 H        6.4007850000     0.8199960000    -2.0549440000 
 H        7.6341170000    -0.3984680000    -1.7118720000 
 H        6.0835200000    -0.8761380000    -2.4286870000 
*
