! RI PBE def2-SVP def2-SVP/J NBO PAL2
% maxcore 2000
% output
    # printlevel mini
    print[ P_Basis ] 0
    print[ P_SCFInfo ] 1
    print[ P_SCFIterInfo ] 1
    print[ P_OrbEn ] 0
    print[ P_Cartesian ] 0
end
*xyz 0 1
 C        2.2737580000    -0.9539860000     1.0482170000 
 C        2.7897710000    -0.1229300000    -0.0945060000 
 N        2.8507950000     1.1553070000    -0.1438080000 
 N        3.2228990000    -0.8383390000    -1.1568570000 
 C        3.7759000000    -0.3806540000    -2.4129240000 
 C        3.9105370000    -1.8620140000    -2.8349760000 
 C        3.3108800000    -2.2515010000    -1.4645000000 
 H        1.9443270000    -0.3118640000     1.8634940000 
 H        3.0499800000    -1.6253910000     1.4253850000 
 H        1.4311920000    -1.5746370000     0.7313010000 
 H        2.4943940000     1.5572730000     0.7164860000 
 H        4.7124710000     0.1746350000    -2.3055540000 
 H        3.0832890000     0.2256800000    -3.0042600000 
 H        4.9331530000    -2.2000820000    -2.9927470000 
 H        3.3030890000    -2.1491040000    -3.6914290000 
 H        3.9802800000    -2.8215100000    -0.8097710000 
 H        2.3465560000    -2.7707920000    -1.5101330000 
*
