! RI PBE def2-SVP def2-SVP/J NBO PAL2
% maxcore 2000
% output
    # printlevel mini
    print[ P_Basis ] 0
    print[ P_SCFInfo ] 1
    print[ P_SCFIterInfo ] 1
    print[ P_OrbEn ] 0
    print[ P_Cartesian ] 0
end
*xyz 0 1
 C        0.8931560000    -0.5715460000    -0.6836900000 
 C        2.3272230000    -0.6696230000    -0.3051530000 
 N        3.0724770000    -1.5820450000    -0.7755930000 
 N        4.3566520000    -1.6645360000    -0.3372900000 
 C        5.2650870000    -2.2699560000    -1.2534870000 
 C        6.4420510000    -2.9754270000    -0.6582320000 
 C        5.3274190000    -3.7609170000    -1.2785230000 
 H        0.6670250000     0.4051470000    -1.1233560000 
 H        0.2462230000    -0.6819970000     0.1929280000 
 H        0.6434190000    -1.3503240000    -1.4041420000 
 H        2.7220350000     0.0668600000     0.4094540000 
 H        4.7114620000    -0.8048940000     0.0757780000 
 H        5.4205120000    -1.7569300000    -2.2019680000 
 H        6.5114510000    -2.9801220000     0.4222870000 
 H        7.3887920000    -2.9126490000    -1.1792520000 
 H        4.6491360000    -4.2798330000    -0.6144260000 
 H        5.5009010000    -4.2430080000    -2.2319350000 
*
