! RI PBE def2-SVP def2-SVP/J NBO PAL2
% maxcore 2000
% output
    # printlevel mini
    print[ P_Basis ] 0
    print[ P_SCFInfo ] 1
    print[ P_SCFIterInfo ] 1
    print[ P_OrbEn ] 0
    print[ P_Cartesian ] 0
end
*xyz 0 1
 C        0.8827000000     0.1138340000    -1.0216870000 
 C        2.3582910000     0.0595350000    -0.8928220000 
 N        3.0354830000    -0.8804790000    -1.4137810000 
 N        4.3982520000    -0.7429490000    -1.1758850000 
 C        5.1021500000    -1.6788740000    -1.6879330000 
 C        4.5514890000    -2.8302340000    -2.4746270000 
 C        6.5769170000    -1.6141680000    -1.4833770000 
 H        0.4123280000     0.1092060000    -0.0331000000 
 H        0.5144250000    -0.7330140000    -1.5997430000 
 H        0.5756360000     1.0452210000    -1.5083060000 
 H        2.8719060000     0.8495450000    -0.3349940000 
 H        3.8381830000    -3.3978130000    -1.8740000000 
 H        5.3504190000    -3.4942300000    -2.8060260000 
 H        3.9991400000    -2.4698920000    -3.3445370000 
 H        6.8457680000    -0.7353430000    -0.8996290000 
 H        7.0932060000    -1.5831820000    -2.4486190000 
 H        6.9291050000    -2.5150810000    -0.9700210000 
*
