! RI PBE def2-SVP def2-SVP/J NBO PAL2
% maxcore 2000
% output
    # printlevel mini
    print[ P_Basis ] 0
    print[ P_SCFInfo ] 1
    print[ P_SCFIterInfo ] 1
    print[ P_OrbEn ] 0
    print[ P_Cartesian ] 0
end
*xyz 0 1
 C        1.2498350000     2.5076720000    -0.9939350000 
 C        2.5870900000     2.0427350000    -0.5599640000 
 N        3.5945750000     2.1135220000    -1.3338150000 
 N        4.7495880000     1.6292110000    -0.7424770000 
 C        5.7599080000     1.7007100000    -1.5209120000 
 C        7.0596140000     1.2438410000    -1.0854600000 
 C        8.1384540000     1.3007080000    -1.8653370000 
 H        0.8837380000     3.2930180000    -0.3247590000 
 H        0.5251900000     1.6888890000    -0.9384570000 
 H        1.2862990000     2.8895460000    -2.0134440000 
 H        2.7077450000     1.6308540000     0.4466590000 
 H        5.6521210000     2.1103520000    -2.5294120000 
 H        7.1146710000     0.8460890000    -0.0767720000 
 H        8.0830410000     1.6984100000    -2.8736930000 
 H        9.1062400000     0.9541440000    -1.5245330000 
*
