! RI PBE def2-SVP def2-SVP/J NBO PAL2
% maxcore 2000
% output
    # printlevel mini
    print[ P_Basis ] 0
    print[ P_SCFInfo ] 1
    print[ P_SCFIterInfo ] 1
    print[ P_OrbEn ] 0
    print[ P_Cartesian ] 0
end
*xyz 0 1
 C        0.9508760000    -0.0675810000     0.0226990000 
 C        2.4284240000    -0.0127490000     0.0836380000 
 N        3.1482150000    -0.6904650000    -0.7183640000 
 N        4.5011480000    -0.4962580000    -0.4921690000 
 C        5.2156000000    -1.1807300000    -1.3000570000 
 C        6.6310470000    -1.1346980000    -1.2485250000 
 C        7.8332810000    -1.1438470000    -1.2613670000 
 H        0.5413110000     0.9327730000    -0.1499470000 
 H        0.5446990000    -0.4088310000     0.9802540000 
 H        0.6203070000    -0.7368440000    -0.7704420000 
 H        2.9087980000     0.6229610000     0.8331430000 
 H        4.7474510000    -1.8199770000    -2.0523780000 
 H        8.8978330000    -1.1383520000    -1.2566850000 
*
