! RI PBE def2-SVP def2-SVP/J NBO PAL2
% maxcore 2000
% output
    # printlevel mini
    print[ P_Basis ] 0
    print[ P_SCFInfo ] 1
    print[ P_SCFIterInfo ] 1
    print[ P_OrbEn ] 0
    print[ P_Cartesian ] 0
end
*xyz 0 1
 C        1.6115760000    -1.1198190000     0.5975470000 
 C        2.8995700000    -0.4481550000     0.2843890000 
 N        3.4352330000     0.3615090000     1.1011730000 
 N        4.5715450000     1.0070560000     0.7324770000 
 C        5.3828730000     1.4026640000     1.8678960000 
 C        6.5631550000     2.1317200000     1.4319050000 
 C        7.5494630000     2.7127240000     1.0733340000 
 H        1.7163860000    -2.2087400000     0.5609390000 
 H        0.8413400000    -0.8506970000    -0.1327050000 
 H        1.2700470000    -0.8296260000     1.5909790000 
 H        3.3688710000    -0.6605200000    -0.6860340000 
 H        5.1108970000     0.5408770000     0.0065700000 
 H        5.6995800000     0.5433050000     2.4784590000 
 H        4.7669520000     2.0373310000     2.5110190000 
 H        8.4200100000     3.2375810000     0.7578520000 
*
