! RI PBE def2-SVP def2-SVP/J NBO PAL2
% maxcore 2000
% output
    # printlevel mini
    print[ P_Basis ] 0
    print[ P_SCFInfo ] 1
    print[ P_SCFIterInfo ] 1
    print[ P_OrbEn ] 0
    print[ P_Cartesian ] 0
end
*xyz 0 1
 C        1.0932800000    -0.1156430000    -0.2733680000 
 C        2.5901100000    -0.2541560000    -0.1993620000 
 N        3.2536790000    -1.3299790000    -0.3768700000 
 N        3.2375750000     0.9181980000     0.0678000000 
 C        4.6586740000     0.9701430000     0.3181010000 
 C        5.2135260000     2.3063580000    -0.0452270000 
 C        5.8651030000     3.0999920000     0.7930110000 
 H        0.6350210000    -1.0573750000    -0.5713100000 
 H        0.8096190000     0.6559260000    -0.9936270000 
 H        0.6856290000     0.1719890000     0.7000920000 
 H        2.6300840000    -2.0938940000    -0.6126440000 
 H        2.6860790000     1.6873190000     0.4064240000 
 H        5.1071130000     0.1830760000    -0.2943740000 
 H        4.8976630000     0.7300050000     1.3626540000 
 H        5.0550370000     2.6193510000    -1.0752980000 
 H        6.0317820000     2.8128740000     1.8269750000 
 H        6.2661160000     4.0559170000     0.4767930000 
*
