! RI PBE def2-SVP def2-SVP/J NBO PAL2
% maxcore 2000
% output
    # printlevel mini
    print[ P_Basis ] 0
    print[ P_SCFInfo ] 1
    print[ P_SCFIterInfo ] 1
    print[ P_OrbEn ] 0
    print[ P_Cartesian ] 0
end
*xyz 0 1
 C        2.3361330000     0.4226910000    -1.8979450000 
 C        2.2280960000    -0.3895850000    -0.6243400000 
 N        2.7947470000    -1.7165560000    -0.7782690000 
 N        4.1405250000    -1.7335580000    -0.9386060000 
 C        4.7873260000    -2.7783810000    -0.6219370000 
 C        6.2559060000    -2.8868740000    -0.8495010000 
 C        6.6170330000    -4.0012170000    -1.8265410000 
 H        1.9025330000     1.4151570000    -1.7546630000 
 H        1.8109450000    -0.0737860000    -2.7166130000 
 H        3.3813900000     0.5417550000    -2.1855280000 
 H        1.1767280000    -0.5342040000    -0.3600300000 
 H        2.7006080000     0.1540500000     0.2071180000 
 H        2.4544300000    -2.3817240000    -0.0891870000 
 H        4.2723690000    -3.6518650000    -0.1942200000 
 H        6.7555380000    -3.0758900000     0.1088440000 
 H        6.6146550000    -1.9223560000    -1.2155400000 
 H        6.2477800000    -4.9698470000    -1.4783510000 
 H        7.6998830000    -4.0826850000    -1.9449620000 
 H        6.1805050000    -3.8128450000    -2.8098990000 
*
