! RI PBE def2-SVP def2-SVP/J NBO PAL2
% maxcore 2000
% output
    # printlevel mini
    print[ P_Basis ] 0
    print[ P_SCFInfo ] 1
    print[ P_SCFIterInfo ] 1
    print[ P_OrbEn ] 0
    print[ P_Cartesian ] 0
end
*xyz 0 1
 C        2.3263090000    -4.0230880000     4.2168200000 
 C        2.4403210000    -2.5942270000     3.7311170000 
 N        3.8276300000    -2.1775240000     3.7132760000 
 N        3.9972740000    -0.8634060000     3.4050970000 
 C        5.1446300000    -0.4688640000     3.0096330000 
 C        6.3152000000    -1.3888510000     2.8337700000 
 C        5.3284110000     0.9867900000     2.7346990000 
 H        1.2802300000    -4.3332040000     4.2502750000 
 H        2.7521160000    -4.1291910000     5.2167590000 
 H        2.8512440000    -4.7150060000     3.5507770000 
 H        1.9109590000    -1.9158290000     4.4035680000 
 H        1.9709760000    -2.4910610000     2.7412140000 
 H        4.4167710000    -2.8160180000     3.1860240000 
 H        6.5076380000    -1.9496210000     3.7549960000 
 H        7.2174410000    -0.8381690000     2.5687570000 
 H        6.1358780000    -2.1260290000     2.0406110000 
 H        6.1090900000     1.4111810000     3.3758130000 
 H        4.3963230000     1.5220800000     2.9116460000 
 H        5.6440390000     1.1555360000     1.6993770000 
*
