! RI PBE def2-SVP def2-SVP/J NBO PAL2
% maxcore 2000
% output
    # printlevel mini
    print[ P_Basis ] 0
    print[ P_SCFInfo ] 1
    print[ P_SCFIterInfo ] 1
    print[ P_OrbEn ] 0
    print[ P_Cartesian ] 0
end
*xyz 0 1
 C        1.3362130000     0.7740140000    -0.7573110000 
 C        2.2971560000     0.4314360000     0.3606370000 
 N        3.0304000000    -0.7748660000     0.0471590000 
 N        4.0937560000    -1.0412600000     0.7966420000 
 C        4.5366970000    -2.2441410000     0.8357090000 
 C        5.7035820000    -2.5746020000     1.5628130000 
 C        6.6862990000    -2.9264730000     2.1624780000 
 H        0.7855510000     1.6849680000    -0.5168580000 
 H        0.6008220000    -0.0216330000    -0.9092890000 
 H        1.8692770000     0.9284250000    -1.6974650000 
 H        1.7534320000     0.3318480000     1.3112170000 
 H        3.0362190000     1.2230320000     0.4964660000 
 H        2.4650380000    -1.5694910000    -0.2425350000 
 H        4.0334760000    -3.0574660000     0.3005690000 
 H        7.5577830000    -3.2177910000     2.6988860000 
*
