! RI PBE def2-SVP def2-SVP/J NBO PAL2
% maxcore 2000
% output
    # printlevel mini
    print[ P_Basis ] 0
    print[ P_SCFInfo ] 1
    print[ P_SCFIterInfo ] 1
    print[ P_OrbEn ] 0
    print[ P_Cartesian ] 0
end
*xyz 0 1
 C        0.8956140000     0.0430870000     0.0350530000 
 C        2.3700270000    -0.0238400000    -0.0305050000 
 N        3.0944070000     0.9428860000     0.3768420000 
 N        4.4418590000     0.6678480000     0.2224650000 
 C        5.1700760000     1.6310360000     0.6265380000 
 C        6.5906980000     1.5245600000     0.5442580000 
 N        7.7407990000     1.4965690000     0.5030340000 
 H        0.5088860000    -0.7856230000     0.6365750000 
 H        0.4699700000    -0.0766280000    -0.9663060000 
 H        0.5658260000     0.9891790000     0.4613470000 
 H        2.8476710000    -0.9199280000    -0.4365030000 
 H        4.7485670000     2.5485340000     1.0393810000 
*
