! RI PBE def2-SVP def2-SVP/J NBO PAL2
% maxcore 2000
% output
    # printlevel mini
    print[ P_Basis ] 0
    print[ P_SCFInfo ] 1
    print[ P_SCFIterInfo ] 1
    print[ P_OrbEn ] 0
    print[ P_Cartesian ] 0
end
*xyz 0 1
 C        0.2757090000    -0.5119250000     0.9587670000 
 C        1.2566850000     0.1533940000     0.0639590000 
 N        2.4359940000    -0.2942470000    -0.0668330000 
 N        3.2661800000     0.3126420000    -0.9601840000 
 C        4.6572510000     0.1317990000    -0.6122600000 
 C        5.5194460000     0.6460810000    -1.6698340000 
 N        6.2043110000     1.0745460000    -2.4864800000 
 H       -0.0984690000     0.1844320000     1.7154750000 
 H        0.7378300000    -1.3641330000     1.4562900000 
 H       -0.5930770000    -0.8613730000     0.3918310000 
 H        0.9258130000     1.0384550000    -0.4959070000 
 H        3.0295880000     1.2789230000    -1.1733210000 
 H        4.8392760000    -0.9388030000    -0.4919920000 
 H        4.9457730000     0.6188190000     0.3311800000 
*
