! RI PBE def2-SVP def2-SVP/J NBO PAL2
% maxcore 2000
% output
    # printlevel mini
    print[ P_Basis ] 0
    print[ P_SCFInfo ] 1
    print[ P_SCFIterInfo ] 1
    print[ P_OrbEn ] 0
    print[ P_Cartesian ] 0
end
*xyz 0 1
 C        0.7642610000     0.2551840000    -0.2609380000 
 C        2.2090860000    -0.0093020000     0.0527800000 
 N        3.0387120000    -0.6703790000    -0.6529510000 
 N        2.6420260000     0.5654350000     1.2184430000 
 C        3.9698620000     0.2656190000     1.6895360000 
 C        4.3073730000     1.0974520000     2.8360710000 
 N        4.5620990000     1.7420150000     3.7525250000 
 H        0.4905690000    -0.2011560000    -1.2106630000 
 H        0.5733620000     1.3294820000    -0.3179250000 
 H        0.1170000000    -0.1571840000     0.5182320000 
 H        2.6049770000    -0.9939170000    -1.5103910000 
 H        1.9564020000     0.8354910000     1.9018980000 
 H        4.6815630000     0.4489090000     0.8802030000 
 H        4.0906180000    -0.7898490000     1.9671690000 
*
