! RI PBE def2-SVP def2-SVP/J NBO PAL2
% maxcore 2000
% output
    # printlevel mini
    print[ P_Basis ] 0
    print[ P_SCFInfo ] 1
    print[ P_SCFIterInfo ] 1
    print[ P_OrbEn ] 0
    print[ P_Cartesian ] 0
end
*xyz 0 1
 C        1.0919260000     0.2041780000     0.1770740000 
 C        2.5514430000     0.2046820000    -0.1414100000 
 N        3.1836830000    -0.7059050000    -0.7773390000 
 N        2.4657220000    -1.7212100000    -1.2804800000 
 C        2.6853470000    -2.8939650000    -0.8591800000 
 C        3.3370150000     1.3200020000     0.3066480000 
 N        3.9075580000     2.2374010000     0.7040280000 
 H        0.5527510000    -0.3190550000    -0.6149720000 
 H        0.7170880000     1.2214440000     0.2838010000 
 H        0.9039080000    -0.3248310000     1.1158610000 
 H        2.1426550000    -3.7065010000    -1.3297840000 
 H        3.3896030000    -3.1126410000    -0.0552360000 
*
