! RI PBE def2-SVP def2-SVP/J NBO PAL2
% maxcore 2000
% output
    # printlevel mini
    print[ P_Basis ] 0
    print[ P_SCFInfo ] 1
    print[ P_SCFIterInfo ] 1
    print[ P_OrbEn ] 0
    print[ P_Cartesian ] 0
end
*xyz 0 1
 C        0.9471450000    -0.4253840000     0.1937380000 
 C        2.4046660000    -0.0180490000     0.0231500000 
 N        2.5307080000     1.1607850000    -0.8232200000 
 N        2.2095960000     0.9261380000    -2.1129670000 
 C        2.6527190000     1.7079830000    -3.0071010000 
 C        3.0222980000     0.2866160000     1.3136980000 
 N        3.5136150000     0.5192170000     2.3260650000 
 H        0.5218540000    -0.6151310000    -0.7911240000 
 H        0.3857740000     0.3750580000     0.6762620000 
 H        0.8734930000    -1.3310740000     0.7969610000 
 H        2.9654720000    -0.8648830000    -0.4002320000 
 H        3.3871670000     1.6877820000    -0.6739020000 
 H        2.3487160000     1.5288140000    -4.0311300000 
 H        3.3120780000     2.5542280000    -2.7912970000 
*
