! RI PBE def2-SVP def2-SVP/J NBO PAL2
% maxcore 2000
% output
    # printlevel mini
    print[ P_Basis ] 0
    print[ P_SCFInfo ] 1
    print[ P_SCFIterInfo ] 1
    print[ P_OrbEn ] 0
    print[ P_Cartesian ] 0
end
*xyz 0 1
 C        1.0494730000     0.0113420000    -0.2907140000 
 N        2.4017630000     0.4493970000    -0.0529220000 
 C        3.5429100000    -0.3535280000    -0.5763960000 
 C        4.3635920000     0.9553360000    -0.4186930000 
 C        2.9998040000     1.5077560000    -0.9150580000 
 C        2.9659310000     0.9034380000    -2.3282470000 
 C        3.3329290000    -0.3545730000    -2.0993550000 
 H        0.8475600000    -0.8680340000     0.3258250000 
 H        0.8383160000    -0.2408720000    -1.3402290000 
 H        0.3605240000     0.7993510000     0.0232220000 
 H        3.7942980000    -1.2838560000    -0.0677480000 
 H        5.2241020000     1.0875520000    -1.0721390000 
 H        4.5738600000     1.2059440000     0.6214360000 
 H        2.6791100000     2.5380440000    -0.7631220000 
 H        2.7206170000     1.4010660000    -3.2555370000 
 H        3.4726120000    -1.1767550000    -2.7865140000 
*
