! RI PBE def2-SVP def2-SVP/J NBO PAL2
% maxcore 2000
% output
    # printlevel mini
    print[ P_Basis ] 0
    print[ P_SCFInfo ] 1
    print[ P_SCFIterInfo ] 1
    print[ P_OrbEn ] 0
    print[ P_Cartesian ] 0
end
*xyz 0 1
 C        0.6110580000    -0.0945890000    -0.2724610000 
 N        2.0030900000     0.0032520000     0.0883780000 
 C        3.0158430000    -0.9009060000    -0.4062350000 
 C        2.7506340000    -1.7441440000    -1.6325320000 
 C        2.3983780000    -0.7700700000    -2.7741470000 
 C        2.7499150000     0.6465950000    -2.2785120000 
 C        3.0153480000     0.5358530000    -0.7944540000 
 H        0.1328520000    -0.8304350000     0.3786050000 
 H        0.4001630000    -0.3764800000    -1.3114430000 
 H        0.1328240000     0.8694040000    -0.0825570000 
 H        3.6843570000    -1.3002940000     0.3519160000 
 H        1.9604120000    -2.4828700000    -1.4653990000 
 H        3.6585140000    -2.3089600000    -1.8626580000 
 H        1.3393280000    -0.8394680000    -3.0298160000 
 H        2.9465210000    -1.0162820000    -3.6859960000 
 H        1.9592930000     1.3685430000    -2.5060930000 
 H        3.6575650000     1.0191300000    -2.7618530000 
 H        3.6833230000     1.2632220000    -0.3406300000 
*
