! RI PBE def2-SVP def2-SVP/J NBO PAL2
% maxcore 2000
% output
    # printlevel mini
    print[ P_Basis ] 0
    print[ P_SCFInfo ] 1
    print[ P_SCFIterInfo ] 1
    print[ P_OrbEn ] 0
    print[ P_Cartesian ] 0
end
*xyz 0 1
 C        0.6873010000     0.0396050000    -0.1921040000 
 N        2.1116760000     0.0998980000     0.0214510000 
 C        3.0399200000    -0.8289280000    -0.5784270000 
 C        2.6241680000    -1.6236900000    -1.7945930000 
 N        2.2207770000    -0.6617030000    -2.8157870000 
 C        2.6192640000     0.6840220000    -2.4142100000 
 C        3.0368850000     0.6070160000    -0.9639650000 
 H        0.2601600000    -0.6861050000     0.5037800000 
 H        0.3646290000    -0.2335640000    -1.2053670000 
 H        0.2567980000     1.0149000000     0.0462850000 
 H        3.7813200000    -1.2577430000     0.0900330000 
 H        1.8104550000    -2.3274440000    -1.5852110000 
 H        3.4816130000    -2.2229260000    -2.1272700000 
 H        1.2322000000    -0.7135880000    -3.0011850000 
 H        1.8024810000     1.3947210000    -2.5845480000 
 H        3.4745790000     1.0394630000    -3.0033300000 
 H        3.7759660000     1.3158650000    -0.6010520000 
*
