! RI PBE def2-SVP def2-SVP/J NBO PAL2
% maxcore 2000
% output
    # printlevel mini
    print[ P_Basis ] 0
    print[ P_SCFInfo ] 1
    print[ P_SCFIterInfo ] 1
    print[ P_OrbEn ] 0
    print[ P_Cartesian ] 0
end
*xyz 0 1
 C        0.9675760000     0.3103120000    -0.3908680000 
 N        2.3945700000     0.3356240000    -0.1664750000 
 C        3.1463480000    -0.7741950000    -0.7165190000 
 C        3.2247060000     0.5754170000    -1.3256810000 
 C        4.4089880000     1.4670560000    -1.1708910000 
 C        4.2445670000     2.8300910000    -0.5686460000 
 C        4.9669650000     1.7557360000     0.1856970000 
 H        0.4861470000    -0.2769180000     0.3948100000 
 H        0.6919460000    -0.1245970000    -1.3648390000 
 H        0.5726230000     1.3279520000    -0.3456760000 
 H        2.5934350000    -1.5403110000    -1.2555340000 
 H        3.9677410000    -1.1358970000    -0.1063870000 
 H        2.6923480000     0.6884300000    -2.2710520000 
 H        5.1272320000     1.3838400000    -1.9809040000 
 H        3.2553690000     3.0948180000    -0.2147350000 
 H        4.8168160000     3.6508780000    -0.9828970000 
 H        4.4453660000     1.3189360000     1.0283980000 
 H        6.0420670000     1.8324290000     0.2895100000 
*
