! RI PBE def2-SVP def2-SVP/J NBO PAL2
% maxcore 2000
% output
    # printlevel mini
    print[ P_Basis ] 0
    print[ P_SCFInfo ] 1
    print[ P_SCFIterInfo ] 1
    print[ P_OrbEn ] 0
    print[ P_Cartesian ] 0
end
*xyz 0 1
 C        1.0659720000     0.3807130000    -0.1308800000 
 N        2.5051800000     0.3501970000     0.0012950000 
 C        3.1875570000    -0.7622520000    -0.6313510000 
 C        3.2771420000     0.6071330000    -1.1922790000 
 C        4.5010870000     1.4468890000    -1.0365440000 
 C        4.4100550000     2.7472990000    -0.3475380000 
 N        5.0801000000     1.6142870000     0.2860010000 
 H        0.6157220000    -0.2152350000     0.6661470000 
 H        0.7167610000    -0.0135700000    -1.0975200000 
 H        0.7117510000     1.4089770000    -0.0298250000 
 H        2.5782950000    -1.4861180000    -1.1673690000 
 H        4.0261740000    -1.1777380000    -0.0820000000 
 H        2.7132280000     0.7786500000    -2.1091810000 
 H        5.2310030000     1.3305830000    -1.8339680000 
 H        3.4348870000     3.0359790000     0.0334700000 
 H        5.0565700000     3.5679710000    -0.6389630000 
 H        4.4317260000     1.2027440000     0.9556950000 
*
