! RI PBE def2-SVP def2-SVP/J NBO PAL2
% maxcore 2000
% output
    # printlevel mini
    print[ P_Basis ] 0
    print[ P_SCFInfo ] 1
    print[ P_SCFIterInfo ] 1
    print[ P_OrbEn ] 0
    print[ P_Cartesian ] 0
end
*xyz 0 1
 C        0.9224990000     0.3151190000    -0.6286910000 
 N        2.2488950000     0.1002990000    -0.0975630000 
 C        2.9749990000    -1.0303420000    -0.6399060000 
 C        3.3520190000     0.3577220000    -0.9966100000 
 C        4.5758450000     1.0310160000    -0.4315570000 
 C        5.8037660000     0.7394060000    -1.2303690000 
 C        6.5639420000     1.6516610000    -1.8195710000 
 H        0.2049370000    -0.2911670000    -0.0706970000 
 H        0.8366640000     0.0560520000    -1.6962300000 
 H        0.6476750000     1.3654920000    -0.5068700000 
 H        2.4831930000    -1.6298110000    -1.4029110000 
 H        3.5744240000    -1.5925670000     0.0699900000 
 H        3.0851950000     0.6655600000    -2.0081180000 
 H        4.7029550000     0.6769490000     0.5978430000 
 H        4.4124820000     2.1124240000    -0.3794670000 
 H        6.0682220000    -0.3122740000    -1.3292640000 
 H        6.3340380000     2.7106760000    -1.7489080000 
 H        7.4449390000     1.3768960000    -2.3881020000 
*
