! RI PBE def2-SVP def2-SVP/J NBO PAL2
% maxcore 2000
% output
    # printlevel mini
    print[ P_Basis ] 0
    print[ P_SCFInfo ] 1
    print[ P_SCFIterInfo ] 1
    print[ P_OrbEn ] 0
    print[ P_Cartesian ] 0
end
*xyz 0 1
 C        1.0684360000     0.3456450000    -0.2128680000 
 N        2.4953970000     0.3088320000     0.0116300000 
 C        3.2339240000    -0.7172390000    -0.6959120000 
 C        3.3342140000     0.7051720000    -1.0921850000 
 C        4.5548420000     1.5351520000    -0.7754150000 
 C        4.2680580000     2.9604510000    -0.7297680000 
 C        4.0133030000     4.1333360000    -0.7064430000 
 H        0.5751850000    -0.3446240000     0.4752140000 
 H        0.7863370000     0.0693400000    -1.2415010000 
 H        0.6981490000     1.3530710000    -0.0123430000 
 H        2.6796500000    -1.3795940000    -1.3573960000 
 H        4.0394640000    -1.1897610000    -0.1420720000 
 H        2.8245310000     0.9803660000    -2.0147660000 
 H        5.3297720000     1.3475210000    -1.5272600000 
 H        4.9568460000     1.2109810000     0.1891960000 
 H        3.7917940000     5.1737520000    -0.6785030000 
*
