! RI PBE def2-SVP def2-SVP/J NBO PAL2
% maxcore 2000
% output
    # printlevel mini
    print[ P_Basis ] 0
    print[ P_SCFInfo ] 1
    print[ P_SCFIterInfo ] 1
    print[ P_OrbEn ] 0
    print[ P_Cartesian ] 0
end
*xyz 0 1
 C        1.7221360000     0.6444560000     0.3650310000 
 N        2.7465960000     0.3113850000    -0.5956760000 
 C        2.3252480000    -0.2970410000    -1.8396120000 
 C        2.9004720000     1.0708910000    -1.8348310000 
 C        4.3304900000     1.2759940000    -2.2567290000 
 C        1.9724350000     2.2211520000    -2.1532700000 
 N        2.3979080000     3.4442870000    -1.4900070000 
 H        1.5021270000    -0.2446840000     0.9611220000 
 H        0.7753090000     0.9941800000    -0.0708010000 
 H        2.0963500000     1.4119030000     1.0484240000 
 H        1.2542890000    -0.3850140000    -2.0193230000 
 H        2.9161440000    -1.1396040000    -2.1873520000 
 H        4.9381030000     0.4258860000    -1.9449970000 
 H        4.7344570000     2.1833970000    -1.8045560000 
 H        4.4019040000     1.3805500000    -3.3435850000 
 H        0.9343750000     1.9325510000    -1.9354660000 
 H        2.0198210000     2.3926390000    -3.2338050000 
 H        2.2622580000     3.3734980000    -0.4892440000 
 H        1.8541960000     4.2346760000    -1.8106010000 
*
