! RI PBE def2-SVP def2-SVP/J NBO PAL2
% maxcore 2000
% output
    # printlevel mini
    print[ P_Basis ] 0
    print[ P_SCFInfo ] 1
    print[ P_SCFIterInfo ] 1
    print[ P_OrbEn ] 0
    print[ P_Cartesian ] 0
end
*xyz 0 1
 C        1.0662700000     0.3148760000    -0.1515800000 
 N        2.4986230000     0.2637200000     0.0416680000 
 C        3.2211840000    -0.7440500000    -0.7050290000 
 C        3.3175760000     0.6880630000    -1.0642900000 
 C        4.5466530000     1.5002510000    -0.7337560000 
 C        4.2458040000     2.9193330000    -0.6066320000 
 N        3.9903880000     4.0369990000    -0.5231790000 
 H        0.5859790000    -0.3892910000     0.5307440000 
 H        0.7619570000     0.0646010000    -1.1798770000 
 H        0.7072140000     1.3188900000     0.0819460000 
 H        2.6557440000    -1.3838850000    -1.3788090000 
 H        4.0351560000    -1.2341670000    -0.1797570000 
 H        2.8001390000     0.9920710000    -1.9728460000 
 H        5.3077090000     1.3773820000    -1.5106480000 
 H        4.9722040000     1.1466070000     0.2086540000 
*
