! RI PBE def2-SVP def2-SVP/J NBO PAL2
% maxcore 2000
% output
    # printlevel mini
    print[ P_Basis ] 0
    print[ P_SCFInfo ] 1
    print[ P_SCFIterInfo ] 1
    print[ P_OrbEn ] 0
    print[ P_Cartesian ] 0
end
*xyz 0 1
 C        0.8093370000     0.0440290000    -0.0338950000 
 N        1.5108990000    -0.6554500000    -1.0803830000 
 C        2.6301340000    -1.5045110000    -0.6103560000 
 C        3.7497610000    -0.9814200000    -1.5071060000 
 C        2.9984820000    -0.8304520000    -2.8514110000 
 C        2.2142060000     0.2085740000    -2.0360330000 
 C        3.5610360000     0.5463700000    -1.3509360000 
 H        0.3275100000    -0.6792880000     0.6285500000 
 H        0.0229140000     0.6655280000    -0.4700960000 
 H        1.4512920000     0.6921070000     0.5887080000 
 H        2.4175610000    -2.5675260000    -0.7598570000 
 H        2.8485110000    -1.3400480000     0.4517260000 
 H        4.7228470000    -1.4651610000    -1.4286790000 
 H        2.4365730000    -1.6857070000    -3.2311800000 
 H        3.6182550000    -0.3828540000    -3.6285090000 
 H        1.5679540000     0.9578470000    -2.4926920000 
 H        3.5443540000     0.9670880000    -0.3429060000 
 H        4.2320650000     1.1188540000    -1.9920650000 
*
