! RI PBE def2-SVP def2-SVP/J NBO PAL2
% maxcore 2000
% output
    # printlevel mini
    print[ P_Basis ] 0
    print[ P_SCFInfo ] 1
    print[ P_SCFIterInfo ] 1
    print[ P_OrbEn ] 0
    print[ P_Cartesian ] 0
end
*xyz 0 1
 C        1.0563820000     0.1713140000     0.4757470000 
 N        2.4487640000     0.0703960000     0.0813400000 
 C        2.7570120000    -1.2710240000    -0.4324670000 
 C        2.5271010000    -1.2264160000    -1.9353290000 
 N        3.6652540000    -0.6521410000    -2.6596860000 
 C        2.5233190000     0.1995880000    -2.3128880000 
 C        2.7512990000     0.9832010000    -1.0293440000 
 H        0.8566560000    -0.5249140000     1.2933220000 
 H        0.3430190000    -0.0463180000    -0.3392670000 
 H        0.8523310000     1.1799680000     0.8418570000 
 H        2.1361750000    -2.0169000000     0.0666870000 
 H        3.8068010000    -1.5090760000    -0.2366990000 
 H        1.9009130000    -1.9584680000    -2.4322280000 
 H        3.6162480000    -0.9117720000    -3.6402200000 
 H        1.8941110000     0.5868520000    -3.1060070000 
 H        2.1263020000     1.8754000000    -0.9639250000 
 H        3.7997120000     1.2919020000    -0.9784040000 
*
