! RI PBE def2-SVP def2-SVP/J NBO PAL2
% maxcore 2000
% output
    # printlevel mini
    print[ P_Basis ] 0
    print[ P_SCFInfo ] 1
    print[ P_SCFIterInfo ] 1
    print[ P_OrbEn ] 0
    print[ P_Cartesian ] 0
end
*xyz 0 1
 C        0.9008220000    -0.2225660000     0.0684340000 
 N        2.3289100000    -0.0939440000     0.0546280000 
 C        2.9379440000     1.0750710000     0.6860750000 
 C        4.1087700000     0.1815460000     1.1586680000 
 C        3.1253980000    -0.9835140000     0.8975530000 
 C        5.2900540000     0.1967090000     0.2592600000 
 C        6.5450120000     0.3521230000     0.6592910000 
 H        0.4492210000     0.5647550000    -0.5405830000 
 H        0.4752050000    -0.1567060000     1.0868410000 
 H        0.6084880000    -1.1842950000    -0.3609110000 
 H        2.3556050000     1.4541860000     1.5416730000 
 H        3.1684940000     1.9060870000     0.0130000000 
 H        4.4123430000     0.3158780000     2.1971730000 
 H        2.6045960000    -1.2801630000     1.8225680000 
 H        3.5131060000    -1.8783010000     0.4017620000 
 H        5.0741750000     0.0681980000    -0.8002720000 
 H        6.7927320000     0.4825130000     1.7085700000 
 H        7.3692140000     0.3549150000    -0.0444280000 
*
