! RI PBE def2-SVP def2-SVP/J NBO PAL2
% maxcore 2000
% output
    # printlevel mini
    print[ P_Basis ] 0
    print[ P_SCFInfo ] 1
    print[ P_SCFIterInfo ] 1
    print[ P_OrbEn ] 0
    print[ P_Cartesian ] 0
end
*xyz 0 1
 C        1.1122590000    -0.1066610000    -0.0069140000 
 N        2.5374930000    -0.1204540000     0.1536280000 
 C        3.1784550000     0.9255590000     0.9415610000 
 C        4.2241810000    -0.0999500000     1.3961980000 
 C        3.2229980000    -1.1838040000     0.9319540000 
 C        2.4122580000    -1.7394490000     2.0951820000 
 C        3.7659000000    -2.2992920000     0.0647820000 
 H        0.8264560000     0.7508280000    -0.6227840000 
 H        0.5535130000    -0.0376860000     0.9424370000 
 H        0.7836470000    -1.0075060000    -0.5319990000 
 H        2.5574640000     1.2880530000     1.7771650000 
 H        3.5222590000     1.7912670000     0.3674180000 
 H        4.4946600000    -0.1044360000     2.4519980000 
 H        5.1270600000    -0.0806110000     0.7849390000 
 H        2.0183790000    -0.9433740000     2.7322250000 
 H        3.0417960000    -2.3824720000     2.7154820000 
 H        1.5693430000    -2.3401850000     1.7424270000 
 H        4.3469790000    -1.8875370000    -0.7620720000 
 H        2.9510710000    -2.8965340000    -0.3561020000 
 H        4.4043290000    -2.9713550000     0.6457660000 
*
