! RI PBE def2-SVP def2-SVP/J NBO PAL2
% maxcore 2000
% output
    # printlevel mini
    print[ P_Basis ] 0
    print[ P_SCFInfo ] 1
    print[ P_SCFIterInfo ] 1
    print[ P_OrbEn ] 0
    print[ P_Cartesian ] 0
end
*xyz 0 1
 C        1.0832010000    -0.2607320000     0.1691370000 
 N        2.5048320000    -0.0731560000     0.2243610000 
 C        3.0460720000     1.0460150000     0.9958390000 
 C        4.2267610000     0.1503970000     1.3910460000 
 C        3.3076860000    -1.0274680000     1.0035510000 
 C        3.8653380000    -2.1798820000     0.2502510000 
 C        3.7730040000    -3.4452780000     0.6359200000 
 H        0.6214190000     0.5502650000    -0.4000230000 
 H        0.6162130000    -0.2877950000     1.1705220000 
 H        0.8537720000    -1.1998670000    -0.3403010000 
 H        2.4205030000     1.3038770000     1.8662390000 
 H        3.2463770000     1.9550440000     0.4224000000 
 H        4.5781950000     0.1875530000     2.4204560000 
 H        5.0702640000     0.2478820000     0.7067750000 
 H        2.7615620000    -1.3908540000     1.8919350000 
 H        4.3782930000    -1.9252830000    -0.6752600000 
 H        3.2556070000    -3.7189710000     1.5508080000 
 H        4.2107100000    -4.2519470000     0.0592240000 
*
