! RI PBE def2-SVP def2-SVP/J NBO PAL2
% maxcore 2000
% output
    # printlevel mini
    print[ P_Basis ] 0
    print[ P_SCFInfo ] 1
    print[ P_SCFIterInfo ] 1
    print[ P_OrbEn ] 0
    print[ P_Cartesian ] 0
end
*xyz 0 1
 C        1.1259550000     0.0154130000    -0.0387050000 
 N        2.5560850000     0.0680310000     0.0700460000 
 C        3.1734200000     1.1139010000     0.8884450000 
 C        4.2494900000     0.1043910000     1.3076500000 
 C        3.2314070000    -0.9678190000     0.8642510000 
 C        3.6832480000    -2.1498280000     0.1557870000 
 C        4.0641460000    -3.1323880000    -0.4200870000 
 H        0.7660440000     0.8842920000    -0.5950630000 
 H        0.6212360000     0.0011750000     0.9442440000 
 H        0.8316230000    -0.8805750000    -0.5902150000 
 H        2.5428620000     1.4140120000     1.7413620000 
 H        3.4819330000     2.0079820000     0.3416140000 
 H        4.5597430000     0.0867090000     2.3501850000 
 H        5.1192720000     0.1228780000     0.6531700000 
 H        2.6179520000    -1.2810670000     1.7275850000 
 H        4.4026840000    -3.9987080000    -0.9373600000 
*
