! RI PBE def2-SVP def2-SVP/J NBO PAL2
% maxcore 2000
% output
    # printlevel mini
    print[ P_Basis ] 0
    print[ P_SCFInfo ] 1
    print[ P_SCFIterInfo ] 1
    print[ P_OrbEn ] 0
    print[ P_Cartesian ] 0
end
*xyz 0 1
 C        1.4736860000     0.3158510000     0.4851450000 
 N        2.5326080000    -0.2246580000    -0.3281680000 
 C        2.3193510000    -1.6090550000    -0.7260300000 
 C        3.2231170000    -1.8107530000    -1.9410480000 
 C        3.2737560000    -0.4376520000    -2.5737480000 
 C        1.9729380000     0.2991350000    -2.7505300000 
 C        2.8242160000     0.5171430000    -1.5236640000 
 H        1.3770700000    -0.2707800000     1.4022390000 
 H        0.4941240000     0.3164210000    -0.0252490000 
 H        1.7089960000     1.3439160000     0.7698480000 
 H        1.2669420000    -1.7888600000    -1.0037450000 
 H        2.5507100000    -2.2876490000     0.0997750000 
 H        2.8477850000    -2.5921810000    -2.6064000000 
 H        4.2306480000    -2.0945330000    -1.6249640000 
 H        4.0985750000    -0.1958670000    -3.2325480000 
 H        1.0419760000    -0.2485720000    -2.6583930000 
 H        1.9516170000     1.0898070000    -3.4906970000 
 H        3.3010830000     1.4790760000    -1.3714230000 
*
