! RI PBE def2-SVP def2-SVP/J NBO PAL2
% maxcore 2000
% output
    # printlevel mini
    print[ P_Basis ] 0
    print[ P_SCFInfo ] 1
    print[ P_SCFIterInfo ] 1
    print[ P_OrbEn ] 0
    print[ P_Cartesian ] 0
end
*xyz 0 1
 C        1.0524240000     0.0324750000     0.0708470000 
 N        2.4860280000     0.0404460000     0.0761400000 
 C        3.2886400000     1.1665620000     0.0820630000 
 C        4.5881170000     0.7535970000     0.0858470000 
 C        4.5950590000    -0.6672940000     0.0821820000 
 C        3.2781620000    -1.0697790000     0.0762230000 
 N        2.7256320000    -2.3270300000     0.0710200000 
 H        0.6946570000     1.0607840000     0.0720980000 
 H        0.6491740000    -0.4661220000     0.9588220000 
 H        0.6557250000    -0.4616490000    -0.8225640000 
 H        2.8486160000     2.1502170000     0.0829730000 
 H        5.4528920000     1.3986130000     0.0907490000 
 H        5.4550430000    -1.3184490000     0.0837090000 
 H        3.3222020000    -3.1284300000     0.0705120000 
 H        1.7370100000    -2.4713610000     0.0658910000 
*
