! RI PBE def2-SVP def2-SVP/J NBO PAL2
% maxcore 2000
% output
    # printlevel mini
    print[ P_Basis ] 0
    print[ P_SCFInfo ] 1
    print[ P_SCFIterInfo ] 1
    print[ P_OrbEn ] 0
    print[ P_Cartesian ] 0
end
*xyz 0 1
 C        1.1792400000    -0.1181900000     0.1582480000 
 N        2.5479450000    -0.0705660000    -0.2618050000 
 C        3.3433570000     1.1222170000    -0.1149360000 
 C        4.6488390000     0.7515430000    -0.8139870000 
 C        4.7372920000    -0.7579050000    -0.6058700000 
 C        3.2979450000    -1.1988630000    -0.4383230000 
 N        2.8029300000    -2.3733850000    -0.4211190000 
 H        0.5917490000     0.6419910000    -0.3643850000 
 H        1.0785650000     0.0496880000     1.2389900000 
 H        0.7866380000    -1.1070060000    -0.0752820000 
 H        3.5078370000     1.3674890000     0.9467910000 
 H        2.8453560000     1.9814850000    -0.5742900000 
 H        5.5052910000     1.2972720000    -0.4173260000 
 H        4.5684120000     0.9787520000    -1.8793910000 
 H        5.2766570000    -1.0044150000     0.3146720000 
 H        5.2254260000    -1.2888880000    -1.4239470000 
 H        3.5239110000    -3.0624300000    -0.6066490000 
*
