! RI PBE def2-SVP def2-SVP/J NBO PAL2
% maxcore 2000
% output
    # printlevel mini
    print[ P_Basis ] 0
    print[ P_SCFInfo ] 1
    print[ P_SCFIterInfo ] 1
    print[ P_OrbEn ] 0
    print[ P_Cartesian ] 0
end
*xyz 0 1
 C        0.9161390000     0.1095780000     0.1819040000 
 N        2.3404860000     0.0485610000    -0.0478120000 
 C        2.8246370000    -1.2796370000    -0.3828450000 
 C        2.5087270000    -1.7189140000    -1.8110730000 
 C        3.0271930000    -0.6882450000    -2.8071800000 
 C        2.5081560000     0.7015980000    -2.4575400000 
 C        2.8240860000     1.0330640000    -1.0005170000 
 H        0.6476150000    -0.5919080000     0.9762510000 
 H        0.2874330000    -0.1242680000    -0.6933630000 
 H        0.6472310000     1.1135520000     0.5208770000 
 H        2.4167310000    -1.9906180000     0.3418040000 
 H        3.9144480000    -1.2785570000    -0.2481510000 
 H        1.4261750000    -1.8388990000    -1.9334650000 
 H        2.9542000000    -2.7006070000    -2.0011590000 
 H        2.7506230000    -0.9613950000    -3.8296730000 
 H        4.1247140000    -0.6786630000    -2.7722670000 
 H        1.4255660000     0.7441040000    -2.6233360000 
 H        2.9532190000     1.4579870000    -3.1118310000 
 H        2.4157710000     2.0104890000    -0.7268080000 
 H        3.9138800000     1.0997770000    -0.8833460000 
*
