! RI PBE def2-SVP def2-SVP/J NBO PAL2
% maxcore 2000
% output
    # printlevel mini
    print[ P_Basis ] 0
    print[ P_SCFInfo ] 1
    print[ P_SCFIterInfo ] 1
    print[ P_OrbEn ] 0
    print[ P_Cartesian ] 0
end
*xyz 0 1
 C        1.3662470000    -0.0829900000     0.5713200000 
 N        2.5154620000    -0.0473760000    -0.2866610000 
 C        2.7553530000    -1.2519520000    -1.0660070000 
 C        3.4949530000    -0.7382420000    -2.2578250000 
 C        3.4150540000     0.5861350000    -2.3304730000 
 C        3.9710390000     1.4929680000    -3.3664380000 
 C        2.5990260000     1.0945500000    -1.1780670000 
 H        1.4363440000    -0.9318430000     1.2562050000 
 H        0.4118420000    -0.1703790000     0.0186800000 
 H        1.3215910000     0.8259190000     1.1767310000 
 H        1.8147230000    -1.7481640000    -1.3791630000 
 H        3.3205720000    -1.9912940000    -0.4844110000 
 H        3.9965110000    -1.3811240000    -2.9710840000 
 H        4.5016620000     0.9375470000    -4.1410060000 
 H        4.6656620000     2.2152680000    -2.9251210000 
 H        3.1771700000     2.0751180000    -3.8466760000 
 H        1.6060070000     1.4294420000    -1.5428000000 
 H        3.0550940000     1.9590080000    -0.6771960000 
*
