! RI PBE def2-SVP def2-SVP/J NBO PAL2
% maxcore 2000
% output
    # printlevel mini
    print[ P_Basis ] 0
    print[ P_SCFInfo ] 1
    print[ P_SCFIterInfo ] 1
    print[ P_OrbEn ] 0
    print[ P_Cartesian ] 0
end
*xyz 0 1
 C        1.0268860000     0.0130710000     0.2273240000 
 N        2.4602920000     0.0007000000     0.2218180000 
 C        3.1767630000     1.0393730000     0.9612000000 
 C        4.2473670000    -0.0065220000     1.3477830000 
 C        4.7250170000    -0.0002350000     2.7825140000 
 C        5.4082790000    -0.0236190000     0.3702830000 
 C        3.1588590000    -1.0393170000     0.9762880000 
 H        0.6590730000     0.8951500000    -0.3035630000 
 H        0.5999240000     0.0242440000     1.2475480000 
 H        0.6439100000    -0.8702800000    -0.2905680000 
 H        2.6219160000     1.3958380000     1.8450670000 
 H        3.4927410000     1.9028100000     0.3660170000 
 H        5.3463600000     0.8780010000     2.9831860000 
 H        5.3311320000    -0.8860650000     2.9959780000 
 H        3.8881030000     0.0120810000     3.4848260000 
 H        6.0450460000     0.8557940000     0.5060080000 
 H        5.0459510000    -0.0280220000    -0.6600350000 
 H        6.0298700000    -0.9117650000     0.5188940000 
 H        2.5980760000    -1.3733030000     1.8651760000 
 H        3.4598350000    -1.9166240000     0.3937450000 
*
