! RI PBE def2-SVP def2-SVP/J NBO PAL2
% maxcore 2000
% output
    # printlevel mini
    print[ P_Basis ] 0
    print[ P_SCFInfo ] 1
    print[ P_SCFIterInfo ] 1
    print[ P_OrbEn ] 0
    print[ P_Cartesian ] 0
end
*xyz 0 1
 C        1.1166250000     0.1317940000    -0.2594020000 
 N        2.5042490000     0.0590440000     0.0713950000 
 C        3.3008740000    -1.1471730000     0.1839600000 
 C        4.6561470000    -0.5882370000     0.5515880000 
 C        5.7863980000    -1.2606920000     0.7806820000 
 C        4.4297570000     0.8444960000     0.5940900000 
 N        3.2062880000     1.1604350000     0.3177000000 
 H        0.7454360000    -0.8810660000    -0.4191080000 
 H        0.9470460000     0.7058730000    -1.1767360000 
 H        0.5299670000     0.5871370000     0.5458190000 
 H        3.3239790000    -1.7021160000    -0.7620050000 
 H        2.9056700000    -1.8180130000     0.9567380000 
 H        5.8362180000    -2.3411130000     0.7192750000 
 H        6.6988140000    -0.7366620000     1.0382140000 
 H        5.1569310000     1.6094840000     0.8232010000 
*
