! RI PBE def2-SVP def2-SVP/J NBO PAL2
% maxcore 2000
% output
    # printlevel mini
    print[ P_Basis ] 0
    print[ P_SCFInfo ] 1
    print[ P_SCFIterInfo ] 1
    print[ P_OrbEn ] 0
    print[ P_Cartesian ] 0
end
*xyz 0 1
 C        1.2039400000     0.1111360000    -0.2427560000 
 N        2.4494670000     0.0275660000     0.4719210000 
 C        3.2941140000    -1.1227290000     0.1619640000 
 C        4.6695920000    -0.6242890000     0.5757230000 
 C        4.4590610000     0.8598640000     0.4157130000 
 C        5.5394150000     1.8747710000     0.4344490000 
 N        3.2222790000     1.1687300000     0.3545860000 
 H        0.5771180000    -0.7411960000     0.0275320000 
 H        1.3430750000     0.1105660000    -1.3364340000 
 H        0.6898720000     1.0281920000     0.0431430000 
 H        3.2707070000    -1.3301710000    -0.9219890000 
 H        2.9574590000    -2.0142480000     0.6928760000 
 H        5.4859030000    -1.0210110000    -0.0298720000 
 H        4.8912080000    -0.8552610000     1.6258880000 
 H        6.2623450000     1.6957780000    -0.3674290000 
 H        6.0961460000     1.8354480000     1.3773450000 
 H        5.1206000000     2.8738760000     0.3178510000 
*
