! RI PBE def2-SVP def2-SVP/J NBO PAL2
% maxcore 2000
% output
    # printlevel mini
    print[ P_Basis ] 0
    print[ P_SCFInfo ] 1
    print[ P_SCFIterInfo ] 1
    print[ P_OrbEn ] 0
    print[ P_Cartesian ] 0
end
*xyz 0 1
 C        1.0756610000     0.0375140000     0.1714470000 
 N        2.4931110000     0.1732790000     0.3926760000 
 C        3.1128230000     1.3058530000    -0.2575400000 
 C        4.5586440000     1.4210050000     0.1859300000 
 C        5.2857590000     0.1265040000    -0.1461980000 
 C        4.3878360000    -1.0542030000     0.0650080000 
 N        3.1365330000    -1.0207930000     0.3090600000 
 H        0.5654480000     0.9367590000     0.5234930000 
 H        0.7153940000    -0.8210860000     0.7360720000 
 H        0.8251900000    -0.1134250000    -0.8904050000 
 H        2.5458580000     2.2020060000     0.0055950000 
 H        3.0645480000     1.1932700000    -1.3557450000 
 H        4.5783660000     1.5948080000     1.2650790000 
 H        5.0364620000     2.2788550000    -0.2921990000 
 H        6.1823710000     0.0110810000     0.4717530000 
 H        5.6404740000     0.1287610000    -1.1841720000 
 H        4.8248310000    -2.0495600000     0.0469560000 
*
