! RI PBE def2-SVP def2-SVP/J NBO PAL2
% maxcore 2000
% output
    # printlevel mini
    print[ P_Basis ] 0
    print[ P_SCFInfo ] 1
    print[ P_SCFIterInfo ] 1
    print[ P_OrbEn ] 0
    print[ P_Cartesian ] 0
end
*xyz 0 1
 C        1.1210250000     0.0020210000     0.1560170000 
 N        2.5548530000     0.0126590000     0.1789290000 
 C        3.2394510000     1.0551350000     0.9442480000 
 C        4.3337290000     0.0140680000     1.3093350000 
 C        4.8544490000     0.0208190000     2.7250950000 
 N        5.4455530000    -0.0674490000     0.3817010000 
 C        3.2557500000    -1.0244230000     0.9392420000 
 H        0.7491410000     0.8837620000    -0.3722720000 
 H        0.6767540000    -0.0042870000     1.1685780000 
 H        0.7621260000    -0.8820230000    -0.3774730000 
 H        2.6681830000     1.3797110000     1.8299190000 
 H        3.5468630000     1.9354930000     0.3698740000 
 H        5.4894500000     0.8955640000     2.9000410000 
 H        5.4575530000    -0.8710250000     2.9094240000 
 H        4.0381080000     0.0505050000     3.4488910000 
 H        6.0551270000     0.7354230000     0.4925110000 
 H        5.0958660000    -0.0491250000    -0.5701020000 
 H        2.6941800000    -1.3601380000     1.8260440000 
 H        3.5819400000    -1.8951690000     0.3629980000 
*
