! RI PBE def2-SVP def2-SVP/J NBO PAL2
% maxcore 2000
% output
    # printlevel mini
    print[ P_Basis ] 0
    print[ P_SCFInfo ] 1
    print[ P_SCFIterInfo ] 1
    print[ P_OrbEn ] 0
    print[ P_Cartesian ] 0
end
*xyz 0 1
 C        1.1053100000    -0.0429670000    -0.1683280000 
 N        2.4845490000    -0.1018880000     0.2321690000 
 C        2.9330560000     1.0477480000     0.9956600000 
 C        4.2821430000     0.6077960000     1.5665170000 
 C        4.2737600000    -0.9345100000     1.4730710000 
 N        5.2813030000    -1.3796390000     0.5215480000 
 C        2.8272490000    -1.2326200000     1.0678220000 
 H        0.9366780000     0.8286880000    -0.8055500000 
 H        0.4165600000     0.0267470000     0.6941480000 
 H        0.8417790000    -0.9349860000    -0.7414310000 
 H        2.2229690000     1.2754930000     1.8138510000 
 H        2.9956110000     1.9353530000     0.3606490000 
 H        4.4179820000     0.9561640000     2.5910780000 
 H        5.1185330000     0.9900220000     0.9796530000 
 H        4.5085940000    -1.3932630000     2.4364540000 
 H        5.0376300000    -1.0347290000    -0.4015310000 
 H        5.2878540000    -2.3915270000     0.4632940000 
 H        2.1763000000    -1.2841780000     1.9645490000 
 H        2.7261310000    -2.1762240000     0.5240860000 
*
