! RI PBE def2-SVP def2-SVP/J NBO PAL2
% maxcore 2000
% output
    # printlevel mini
    print[ P_Basis ] 0
    print[ P_SCFInfo ] 1
    print[ P_SCFIterInfo ] 1
    print[ P_OrbEn ] 0
    print[ P_Cartesian ] 0
end
*xyz 0 1
 C        0.9004030000    -0.0236960000     0.0573700000 
 N        2.3287680000     0.0690160000     0.1438420000 
 C        2.9537090000     1.2981910000    -0.2821950000 
 C        4.3901220000     1.3321180000     0.2063580000 
 C        5.0955020000     0.0375090000    -0.1687170000 
 N        4.3637180000    -1.1524740000     0.2194340000 
 C        3.1010020000    -1.0429560000     0.3249670000 
 H        0.4235660000     0.7667300000     0.6466090000 
 H        0.5699500000    -0.9860810000     0.4508530000 
 H        0.5403440000     0.0629450000    -0.9772680000 
 H        2.3830390000     2.1391930000     0.1268650000 
 H        2.9171740000     1.3907330000    -1.3784830000 
 H        4.3936800000     1.4424680000     1.2952400000 
 H        4.9066180000     2.1995180000    -0.2122150000 
 H        6.0840260000    -0.0010980000     0.2980740000 
 H        5.2727470000     0.0064870000    -1.2523840000 
 H        2.5264620000    -1.9251010000     0.6133510000 
*
