! RI PBE def2-SVP def2-SVP/J NBO PAL2
% maxcore 2000
% output
    # printlevel mini
    print[ P_Basis ] 0
    print[ P_SCFInfo ] 1
    print[ P_SCFIterInfo ] 1
    print[ P_OrbEn ] 0
    print[ P_Cartesian ] 0
end
*xyz 0 1
 C        1.1280920000     0.0791660000    -0.1531400000 
 N        2.5365840000     0.0396230000     0.1047870000 
 C        3.2950500000    -1.1795450000     0.3027540000 
 C        4.7167490000    -0.6154670000     0.5331730000 
 N        4.6144890000     0.8396520000     0.4411720000 
 C        3.3867140000     1.1085260000     0.2050790000 
 C        2.8674700000     2.4928400000     0.0413300000 
 H        0.7451310000    -0.9414450000    -0.1714430000 
 H        0.8900810000     0.5339330000    -1.1220970000 
 H        0.5732850000     0.6215330000     0.6216790000 
 H        3.2350640000    -1.8326820000    -0.5763280000 
 H        2.9190980000    -1.7469060000     1.1627950000 
 H        5.4269240000    -0.9849670000    -0.2124190000 
 H        5.1126180000    -0.8978240000     1.5131680000 
 H        3.6911070000     3.1936060000     0.1554010000 
 H        2.1002380000     2.7165590000     0.7876830000 
 H        2.4142170000     2.6294660000    -0.9443840000 
*
