! RI PBE def2-SVP def2-SVP/J NBO PAL2
% maxcore 2000
% output
    # printlevel mini
    print[ P_Basis ] 0
    print[ P_SCFInfo ] 1
    print[ P_SCFIterInfo ] 1
    print[ P_OrbEn ] 0
    print[ P_Cartesian ] 0
end
*xyz 0 1
 C        1.0715690000     0.1093530000     0.1319630000 
 N        2.4898570000     0.0400170000    -0.1332830000 
 C        2.9615810000    -1.2876270000    -0.4904780000 
 C        2.6485930000    -1.6779080000    -1.9286610000 
 N        3.2061060000    -0.6712710000    -2.8159920000 
 C        2.6468880000     0.6420980000    -2.5442370000 
 C        2.9598980000     1.0165660000    -1.1018510000 
 H        0.8202240000    -0.5917790000     0.9323570000 
 H        0.4174390000    -0.1186100000    -0.7255150000 
 H        0.8189760000     1.1147010000     0.4796250000 
 H        2.5318290000    -2.0147410000     0.2043400000 
 H        4.0500490000    -1.3045390000    -0.3625110000 
 H        1.5570260000    -1.7937860000    -2.0538810000 
 H        3.1065060000    -2.6456080000    -2.1528210000 
 H        3.0568710000    -0.9278080000    -3.7824160000 
 H        1.5552130000     0.6791520000    -2.7100400000 
 H        3.1035730000     1.3719940000    -3.2188170000 
 H        2.5289070000     1.9919170000    -0.8587580000 
 H        4.0482960000     1.0961790000    -0.9995140000 
*
