! RI PBE def2-SVP def2-SVP/J NBO PAL2
% maxcore 2000
% output
    # printlevel mini
    print[ P_Basis ] 0
    print[ P_SCFInfo ] 1
    print[ P_SCFIterInfo ] 1
    print[ P_OrbEn ] 0
    print[ P_Cartesian ] 0
end
*xyz 0 1
 C        1.1463560000     0.0531030000    -0.0396840000 
 N        2.5262290000     0.3056270000     0.2497560000 
 C        3.2561120000     1.3735390000    -0.1869620000 
 N        4.5276930000     1.2985520000    -0.0574750000 
 C        4.7930500000    -0.0253590000     0.4268600000 
 C        4.3951040000    -1.1771970000    -0.4550300000 
 C        3.4520800000    -0.7170860000     0.6173300000 
 H        0.6406840000     0.9985620000    -0.2429900000 
 H        0.6551620000    -0.4128750000     0.8190760000 
 H        1.0137360000    -0.6058550000    -0.9079190000 
 H        2.7415670000     2.2400690000    -0.5912960000 
 H        5.6319390000    -0.1444360000     1.1006210000 
 H        4.9038320000    -2.1162780000    -0.2784880000 
 H        4.1521390000    -0.9621700000    -1.4896590000 
 H        3.1754170000    -1.3566960000     1.4478710000 
*
