! RI PBE def2-SVP def2-SVP/J NBO PAL2
% maxcore 2000
% output
    # printlevel mini
    print[ P_Basis ] 0
    print[ P_SCFInfo ] 1
    print[ P_SCFIterInfo ] 1
    print[ P_OrbEn ] 0
    print[ P_Cartesian ] 0
end
*xyz 0 1
 C        2.9760460000     0.8084770000     0.7576600000 
 N        2.2624640000     0.0550830000    -0.2515800000 
 C        2.7734130000     0.2194670000    -1.5725300000 
 C        1.8671260000     0.0883120000    -2.7503900000 
 C        2.5198280000     1.4188060000    -2.4669090000 
 C        1.6406850000     2.5409200000    -1.9843680000 
 C        3.6361870000     1.8494490000    -3.3804350000 
 H        2.5279130000     0.6265000000     1.7366900000 
 H        2.9988970000     1.8944030000     0.5805890000 
 H        4.0118300000     0.4600060000     0.8021500000 
 H        1.2705200000     0.2420370000    -0.2162710000 
 H        3.7623550000    -0.2215930000    -1.6819560000 
 H        0.8046790000     0.0038040000    -2.5434870000 
 H        2.1969220000    -0.4899840000    -3.6057160000 
 H        0.9087320000     2.2013150000    -1.2478900000 
 H        1.0847940000     2.9851690000    -2.8160060000 
 H        2.2336500000     3.3357190000    -1.5218210000 
 H        4.2574720000     0.9998680000    -3.6755310000 
 H        4.2839290000     2.5836060000    -2.8910540000 
 H        3.2461470000     2.3072160000    -4.2957250000 
*
