! RI PBE def2-SVP def2-SVP/J NBO PAL2
% maxcore 2000
% output
    # printlevel mini
    print[ P_Basis ] 0
    print[ P_SCFInfo ] 1
    print[ P_SCFIterInfo ] 1
    print[ P_OrbEn ] 0
    print[ P_Cartesian ] 0
end
*xyz 0 1
 C        1.8423110000     1.0143650000    -0.0346230000 
 N        2.2259670000    -0.3719530000     0.1247290000 
 C        2.9556630000    -0.6408110000     1.3125620000 
 C        3.9984830000    -1.6930430000     1.3360150000 
 C        4.4293900000    -0.2593770000     1.4916300000 
 C        4.9049090000     0.2903600000     2.7695960000 
 C        4.9956560000    -0.3522520000     3.9296330000 
 H        1.2972570000     1.1393900000    -0.9720660000 
 H        2.6915830000     1.7154620000    -0.0255280000 
 H        1.1700200000     1.3001410000     0.7786570000 
 H        2.7242100000    -0.7089550000    -0.6878770000 
 H        2.3643430000    -0.5301190000     2.2181740000 
 H        4.2434310000    -2.1781030000     0.3973520000 
 H        4.0536880000    -2.3486470000     2.1957600000 
 H        4.8719620000     0.1888410000     0.6068100000 
 H        5.1680910000     1.3462340000     2.7439770000 
 H        4.7637260000    -1.4073790000     4.0274960000 
 H        5.3121200000     0.1613570000     4.8292920000 
*
