! RI PBE def2-SVP def2-SVP/J NBO PAL2
% maxcore 2000
% output
    # printlevel mini
    print[ P_Basis ] 0
    print[ P_SCFInfo ] 1
    print[ P_SCFIterInfo ] 1
    print[ P_OrbEn ] 0
    print[ P_Cartesian ] 0
end
*xyz 0 1
 C        3.3679230000    -0.6951300000     0.5039630000 
 N        2.4353330000     0.0412410000    -0.3237490000 
 C        2.9917850000     1.1827040000    -0.9566520000 
 C        2.1640060000     2.3828760000    -1.2055980000 
 C        3.2863010000     2.4739600000    -0.1892790000 
 C        4.4562090000     3.2384920000    -0.4787420000 
 C        5.4475050000     3.8682080000    -0.7388820000 
 H        2.8608240000    -1.5509550000     0.9528870000 
 H        3.8229190000    -0.0946080000     1.3062050000 
 H        4.1785030000    -1.0812550000    -0.1194250000 
 H        1.5997970000     0.2836700000     0.1912980000 
 H        3.7320920000     0.9397930000    -1.7132880000 
 H        1.1533170000     2.3928580000    -0.8129400000 
 H        2.2929020000     2.9174620000    -2.1373380000 
 H        2.9767450000     2.4710170000     0.8513510000 
 H        6.3240380000     4.4272660000    -0.9646190000 
*
