! RI PBE def2-SVP def2-SVP/J NBO PAL2
% maxcore 2000
% output
    # printlevel mini
    print[ P_Basis ] 0
    print[ P_SCFInfo ] 1
    print[ P_SCFIterInfo ] 1
    print[ P_OrbEn ] 0
    print[ P_Cartesian ] 0
end
*xyz 0 1
 C        2.1172920000     0.5191290000    -0.9787500000 
 N        3.4684810000     0.3367110000    -0.4918960000 
 C        3.5741750000     0.3663820000     0.9323730000 
 C        4.7811060000     0.9530200000     1.5779750000 
 C        3.4433720000     1.6343740000     1.7331370000 
 C        2.7646830000     1.6439090000     3.0698750000 
 N        3.2713920000     2.7315690000     3.8947160000 
 H        2.1161250000     0.5101190000    -2.0705270000 
 H        1.6386310000     1.4498940000    -0.6355740000 
 H        1.4948930000    -0.3149540000    -0.6429820000 
 H        4.0909030000     1.0196730000    -0.9027560000 
 H        3.1705860000    -0.5287680000     1.4009830000 
 H        5.5197440000     1.4207650000     0.9363750000 
 H        5.2014520000     0.4392590000     2.4355460000 
 H        3.3165370000     2.5459230000     1.1556080000 
 H        2.8836850000     0.6467510000     3.5264740000 
 H        1.6888860000     1.7986590000     2.9326520000 
 H        4.2698020000     2.6246460000     4.0306930000 
 H        2.8416650000     2.7201410000     4.8113990000 
*
