! RI PBE def2-SVP def2-SVP/J NBO PAL2
% maxcore 2000
% output
    # printlevel mini
    print[ P_Basis ] 0
    print[ P_SCFInfo ] 1
    print[ P_SCFIterInfo ] 1
    print[ P_OrbEn ] 0
    print[ P_Cartesian ] 0
end
*xyz 0 1
 C        1.7674470000     0.2803220000    -0.2141520000 
 N        3.0892640000    -0.2896890000    -0.0666890000 
 C        3.5981810000    -0.2537700000     1.2633850000 
 C        5.0680520000    -0.1824020000     1.5066900000 
 C        4.1946220000     0.9675160000     1.9368220000 
 C        4.3105400000     2.2696660000     1.1876370000 
 N        3.9605850000     1.0376890000     3.3537110000 
 H        1.4487990000     0.2046050000    -1.2558930000 
 H        1.6897070000     1.3334460000     0.0973920000 
 H        1.0581620000    -0.2946620000     0.3877920000 
 H        3.7409490000     0.1162880000    -0.7230150000 
 H        3.0438080000    -0.8910240000     1.9471120000 
 H        5.7046840000    -0.0219140000     0.6425060000 
 H        5.4937370000    -0.8127900000     2.2766580000 
 H        4.3923850000     2.1204070000     0.1080610000 
 H        5.1979720000     2.8243020000     1.5096020000 
 H        3.4377130000     2.9039540000     1.3707250000 
 H        4.7234590000     1.5137920000     3.8228190000 
 H        3.1132440000     1.5576530000     3.5518270000 
*
