! RI PBE def2-SVP def2-SVP/J NBO PAL2
% maxcore 2000
% output
    # printlevel mini
    print[ P_Basis ] 0
    print[ P_SCFInfo ] 1
    print[ P_SCFIterInfo ] 1
    print[ P_OrbEn ] 0
    print[ P_Cartesian ] 0
end
*xyz 0 1
 C        1.3620410000    -0.6420320000    -0.3378720000 
 N        1.8512300000     0.6980860000    -0.0902450000 
 C        2.6458360000     1.2203230000    -1.1535660000 
 C        1.9300490000     1.8968080000    -2.2853670000 
 C        2.7288910000     2.7067850000    -1.3135730000 
 N        3.9654630000     3.2606290000    -1.7602630000 
 C        4.8651130000     3.6064650000    -0.6807210000 
 H        0.7885910000    -0.9896870000     0.5240640000 
 H        2.1549300000    -1.3788340000    -0.5452790000 
 H        0.6919950000    -0.6286270000    -1.2011340000 
 H        2.3701910000     0.7275140000     0.7783700000 
 H        3.5516620000     0.6789730000    -1.4370960000 
 H        0.8513790000     1.9584810000    -2.2161240000 
 H        2.3378650000     1.7772100000    -3.2809930000 
 H        2.1499990000     3.2713330000    -0.5784810000 
 H        3.7924240000     4.0657670000    -2.3484230000 
 H        5.1653610000     2.6971590000    -0.1532500000 
 H        4.4300080000     4.2941190000     0.0628110000 
 H        5.7682610000     4.0672390000    -1.0860560000 
*
