! RI PBE def2-SVP def2-SVP/J NBO PAL2
% maxcore 2000
% output
    # printlevel mini
    print[ P_Basis ] 0
    print[ P_SCFInfo ] 1
    print[ P_SCFIterInfo ] 1
    print[ P_OrbEn ] 0
    print[ P_Cartesian ] 0
end
*xyz 0 1
 C        2.5310670000    -1.4084090000     0.0325360000 
 N        2.3598850000     0.0274000000     0.0064930000 
 C        2.8731770000     0.6726680000    -1.1671970000 
 C        2.8314020000     2.2055520000    -1.2086570000 
 C        4.1273120000     2.1789100000    -2.0381010000 
 C        4.3975290000     0.7643250000    -1.5054070000 
 N        5.0835070000    -0.1471930000    -2.3843100000 
 H        2.0899260000    -1.8164690000     0.9444630000 
 H        3.5776590000    -1.7495760000    -0.0174060000 
 H        2.0003720000    -1.8510830000    -0.8154280000 
 H        2.7634910000     0.4479040000     0.8347010000 
 H        2.3546570000     0.2588790000    -2.0433960000 
 H        3.0060240000     2.6216660000    -0.2120580000 
 H        1.9476160000     2.6808590000    -1.6336660000 
 H        4.8807660000     2.9459060000    -1.8590390000 
 H        3.9108140000     2.1462630000    -3.1097490000 
 H        4.9579750000     0.8258290000    -0.5642030000 
 H        4.5612350000    -0.2792220000    -3.2424630000 
 H        5.2033980000    -1.0572900000    -1.9583340000 
*
