! RI PBE def2-SVP def2-SVP/J NBO PAL2
% maxcore 2000
% output
    # printlevel mini
    print[ P_Basis ] 0
    print[ P_SCFInfo ] 1
    print[ P_SCFIterInfo ] 1
    print[ P_OrbEn ] 0
    print[ P_Cartesian ] 0
end
*xyz 0 1
 C        3.2573590000     0.3466930000    -0.9199760000 
 N        2.4271130000    -0.0103320000     0.2089110000 
 C        2.8139070000    -1.2255520000     0.8866130000 
 C        1.9377450000    -1.5059830000     2.1078380000 
 C        2.1105510000    -3.0031050000     2.4173130000 
 C        2.8757550000    -3.5954010000     1.2144360000 
 C        2.7478180000    -2.5497420000     0.1136880000 
 H        2.9005980000     1.2826070000    -1.3554370000 
 H        3.2990800000    -0.4072590000    -1.7217490000 
 H        4.2816250000     0.5167900000    -0.5751690000 
 H        1.4561990000    -0.0748070000    -0.0744060000 
 H        3.8522450000    -1.0861510000     1.2201810000 
 H        0.8974190000    -1.2874290000     1.8414310000 
 H        2.1886030000    -0.8553020000     2.9467720000 
 H        1.1400200000    -3.4881540000     2.5416140000 
 H        2.6575540000    -3.1637550000     3.3484980000 
 H        2.5011460000    -4.5771960000     0.9181180000 
 H        3.9315580000    -3.7261440000     1.4704380000 
 H        1.7682240000    -2.6230790000    -0.3765050000 
 H        3.5129700000    -2.6470110000    -0.6594180000 
*
