! RI PBE def2-SVP def2-SVP/J NBO PAL2
% maxcore 2000
% output
    # printlevel mini
    print[ P_Basis ] 0
    print[ P_SCFInfo ] 1
    print[ P_SCFIterInfo ] 1
    print[ P_OrbEn ] 0
    print[ P_Cartesian ] 0
end
*xyz 0 1
 C        2.7759430000    -0.5718050000     0.9069750000 
 N        2.3186340000     0.6379590000     0.2567770000 
 C        2.8812530000     0.9060440000    -1.0578510000 
 C        2.4321060000    -0.1456880000    -2.0485570000 
 C        2.6021920000     2.3780080000    -1.4425170000 
 C        4.0428580000     2.7492050000    -1.0424310000 
 C        4.4052390000     1.2526080000    -1.0634440000 
 H        2.4103650000    -0.5832040000     1.9354660000 
 H        3.8712570000    -0.6894050000     0.9361990000 
 H        2.3611960000    -1.4509190000     0.4090240000 
 H        2.4893330000     1.4324400000     0.8604350000 
 H        2.8389650000    -1.1310730000    -1.8063830000 
 H        1.3414800000    -0.2181790000    -2.0561580000 
 H        2.7725020000     0.1096160000    -3.0541880000 
 H        1.7795020000     2.8564420000    -0.9063240000 
 H        2.4284160000     2.4880900000    -2.5146980000 
 H        4.1027190000     3.1816260000    -0.0414410000 
 H        4.5931950000     3.4014220000    -1.7215680000 
 H        4.9991620000     0.8659560000    -0.2325010000 
 H        4.8892730000     0.9575560000    -1.9973160000 
*
