! RI PBE def2-SVP def2-SVP/J NBO PAL2
% maxcore 2000
% output
    # printlevel mini
    print[ P_Basis ] 0
    print[ P_SCFInfo ] 1
    print[ P_SCFIterInfo ] 1
    print[ P_OrbEn ] 0
    print[ P_Cartesian ] 0
end
*xyz 0 1
 C        1.5950310000     0.9071460000    -0.9504480000 
 N        2.2511430000    -0.0316790000    -0.0697540000 
 C        2.9310770000    -1.1256760000    -0.7406350000 
 C        3.7068490000    -1.9594080000     0.2968050000 
 C        2.8246840000    -3.1495640000     0.5281250000 
 C        1.8831870000    -3.2521870000    -0.4038640000 
 C        1.9840770000    -2.1507200000    -1.4169210000 
 H        1.0982030000     1.6768790000    -0.3562590000 
 H        0.8443660000     0.4695750000    -1.6284060000 
 H        2.3457880000     1.4051830000    -1.5712580000 
 H        1.5925840000    -0.4059640000     0.6040080000 
 H        3.6054320000    -0.6722320000    -1.4726910000 
 H        3.8968370000    -1.3671760000     1.1961050000 
 H        4.6850050000    -2.2735710000    -0.0874720000 
 H        2.9725760000    -3.8486230000     1.3433130000 
 H        1.1450920000    -4.0444700000    -0.4577970000 
 H        1.0170490000    -1.7059410000    -1.6714080000 
 H        2.4033100000    -2.5307620000    -2.3573440000 
*
