! RI PBE def2-SVP def2-SVP/J NBO PAL2
% maxcore 2000
% output
    # printlevel mini
    print[ P_Basis ] 0
    print[ P_SCFInfo ] 1
    print[ P_SCFIterInfo ] 1
    print[ P_OrbEn ] 0
    print[ P_Cartesian ] 0
end
*xyz 0 1
 C        1.1937310000    -0.0516060000     0.2458750000 
 N        2.6231430000    -0.1214830000     0.0319550000 
 C        2.9974220000    -0.8207410000    -1.1636870000 
 C        4.4969290000    -1.0343320000    -1.4091100000 
 C        4.1755850000    -2.4174610000    -2.0202150000 
 C        4.1023280000    -2.4229780000    -3.5340280000 
 C        2.7975900000    -2.3547490000    -1.3228420000 
 H        0.9850660000     0.4638560000     1.1855450000 
 H        0.6901920000    -1.0314720000     0.2730050000 
 H        0.7354040000     0.5319560000    -0.5578800000 
 H        3.0753650000    -0.5495000000     0.8313260000 
 H        2.5390060000    -0.2986230000    -2.0101370000 
 H        5.0311340000    -1.1292900000    -0.4591460000 
 H        5.0219480000    -0.3067790000    -2.0316190000 
 H        4.8248560000    -3.2296020000    -1.6843850000 
 H        3.4613780000    -1.6185790000    -3.9068940000 
 H        3.6957060000    -3.3680220000    -3.9045990000 
 H        5.0932120000    -2.2879370000    -3.9764940000 
 H        2.8139400000    -2.8494850000    -0.3470390000 
 H        1.9329660000    -2.7141700000    -1.8860380000 
*
