! RI PBE def2-SVP def2-SVP/J NBO PAL2
% maxcore 2000
% output
    # printlevel mini
    print[ P_Basis ] 0
    print[ P_SCFInfo ] 1
    print[ P_SCFIterInfo ] 1
    print[ P_OrbEn ] 0
    print[ P_Cartesian ] 0
end
*xyz 0 1
 C        2.8527120000     1.2869160000     0.0181530000 
 N        2.4492890000    -0.0980930000    -0.0920270000 
 C        2.9826980000    -0.7758270000    -1.2706960000 
 C        2.4879220000    -2.2294550000    -1.3327270000 
 C        3.6160530000    -3.0884840000    -0.7427940000 
 C        4.8132480000    -2.1974590000    -0.8763090000 
 C        4.4779730000    -0.9485440000    -1.1746350000 
 H        2.3192460000     1.7585940000     0.8456030000 
 H        2.6680380000     1.8804910000    -0.8940580000 
 H        3.9202540000     1.3485130000     0.2424810000 
 H        1.4382950000    -0.1485800000    -0.1290610000 
 H        2.7136520000    -0.2255600000    -2.1908670000 
 H        2.3268080000    -2.5079740000    -2.3768410000 
 H        1.5379730000    -2.3547970000    -0.8081190000 
 H        3.7348230000    -4.0388370000    -1.2710060000 
 H        3.4413480000    -3.3357910000     0.3108100000 
 H        5.8278390000    -2.5441770000    -0.7127520000 
 H        5.1775080000    -0.1304550000    -1.2986460000 
*
