! RI PBE def2-SVP def2-SVP/J NBO PAL2
% maxcore 2000
% output
    # printlevel mini
    print[ P_Basis ] 0
    print[ P_SCFInfo ] 1
    print[ P_SCFIterInfo ] 1
    print[ P_OrbEn ] 0
    print[ P_Cartesian ] 0
end
*xyz 0 1
 C        0.9541700000     0.0841930000     0.0972590000 
 N        2.3973870000     0.0491780000     0.0966570000 
 C        2.9943530000    -0.5080270000    -0.8709480000 
 C        4.4611170000    -0.6107180000    -0.9907900000 
 C        4.6963260000    -1.2595460000    -2.1371350000 
 C        3.3684760000    -1.5479700000    -2.7084990000 
 N        2.3862710000    -1.1243900000    -1.9958730000 
 H        0.6092030000     0.5974950000     0.9940560000 
 H        0.5336230000    -0.9253890000     0.0760880000 
 H        0.5700610000     0.6037670000    -0.7853780000 
 H        5.1573490000    -0.2200890000    -0.2644760000 
 H        5.6455560000    -1.5293550000    -2.5771400000 
 H        3.1983980000    -2.0698580000    -3.6461100000 
*
