! RI PBE def2-SVP def2-SVP/J NBO PAL2
% maxcore 2000
% output
    # printlevel mini
    print[ P_Basis ] 0
    print[ P_SCFInfo ] 1
    print[ P_SCFIterInfo ] 1
    print[ P_OrbEn ] 0
    print[ P_Cartesian ] 0
end
*xyz 0 1
 C        2.1722070000    -0.1566920000    -1.2482500000 
 N        3.1375850000    -0.7872670000    -0.3737730000 
 C        2.6472680000    -1.1477110000     0.9407670000 
 C        2.1332620000     0.0143410000     1.7792540000 
 C        3.6127640000    -2.0543250000     1.7318520000 
 N        2.5683660000    -3.0908550000     1.8946080000 
 C        1.6877440000    -2.3595740000     0.9551810000 
 H        2.6232980000    -0.0008350000    -2.2303670000 
 H        1.7824310000     0.8111330000    -0.8979050000 
 H        1.3181820000    -0.8256960000    -1.3868720000 
 H        3.9592520000    -0.2014280000    -0.2802630000 
 H        1.2815970000     0.5081880000     1.3047080000 
 H        1.8060670000    -0.3334200000     2.7632670000 
 H        2.9204180000     0.7596430000     1.9325240000 
 H        4.0103000000    -1.6360440000     2.6612090000 
 H        4.4407900000    -2.4200430000     1.1181150000 
 H        2.1892910000    -3.0884760000     2.8323580000 
 H        0.6732600000    -2.1676900000     1.3159200000 
 H        1.6343060000    -2.8678480000    -0.0114310000 
*
