! RI PBE def2-SVP def2-SVP/J NBO PAL2
% maxcore 2000
% output
    # printlevel mini
    print[ P_Basis ] 0
    print[ P_SCFInfo ] 1
    print[ P_SCFIterInfo ] 1
    print[ P_OrbEn ] 0
    print[ P_Cartesian ] 0
end
*xyz 0 1
 C        3.1474980000     0.0991190000    -1.2034670000 
 N        2.3285960000    -0.0120860000    -0.0159470000 
 C        2.8772540000    -0.8757320000     0.9893530000 
 C        2.0105030000    -1.1422400000     2.2288220000 
 C        2.5322220000    -2.5919570000     2.2634210000 
 N        3.5620240000    -2.7792070000     3.2658480000 
 C        2.9856700000    -2.4147490000     0.7892090000 
 H        2.6536000000     0.7424840000    -1.9343400000 
 H        3.3733900000    -0.8634180000    -1.6902250000 
 H        4.1007080000     0.5687640000    -0.9435670000 
 H        1.3967290000    -0.3254550000    -0.2612350000 
 H        3.8524720000    -0.4669170000     1.2772140000 
 H        0.9480210000    -1.1040670000     1.9735840000 
 H        2.1778530000    -0.5351660000     3.1200060000 
 H        1.7714930000    -3.3590400000     2.4232800000 
 H        4.2748920000    -2.0626400000     3.1896430000 
 H        4.0263540000    -3.6704900000     3.1359370000 
 H        2.2249380000    -2.7685350000     0.0857950000 
 H        3.9520630000    -2.8435690000     0.5131600000 
*
