! RI PBE def2-SVP def2-SVP/J NBO PAL2
% maxcore 2000
% output
    # printlevel mini
    print[ P_Basis ] 0
    print[ P_SCFInfo ] 1
    print[ P_SCFIterInfo ] 1
    print[ P_OrbEn ] 0
    print[ P_Cartesian ] 0
end
*xyz 0 1
 C        1.2720540000     0.0000760000     0.9098040000 
 N        2.5159960000    -0.0137680000     0.2077630000 
 C        3.1633810000    -1.1819810000    -0.1171770000 
 C        4.3623490000    -1.3150330000    -0.7890620000 
 N        4.6292390000    -2.6591520000    -0.8933190000 
 C        3.6411810000    -3.3764760000    -0.3111250000 
 C        2.7085140000    -2.4953220000     0.1847480000 
 H        0.9526740000     1.0325380000     1.0545530000 
 H        1.3480860000    -0.4667150000     1.9015940000 
 H        0.4765680000    -0.5199230000     0.3583380000 
 H        2.9335540000     0.8551700000    -0.0575900000 
 H        5.0314680000    -0.5726940000    -1.1921760000 
 H        5.4397070000    -3.0467170000    -1.3372310000 
 H        3.6646490000    -4.4539400000    -0.2872270000 
 H        1.8027810000    -2.7631640000     0.7050160000 
*
