! RI PBE def2-SVP def2-SVP/J NBO PAL2
% maxcore 2000
% output
    # printlevel mini
    print[ P_Basis ] 0
    print[ P_SCFInfo ] 1
    print[ P_SCFIterInfo ] 1
    print[ P_OrbEn ] 0
    print[ P_Cartesian ] 0
end
*xyz 0 1
 C        3.1894420000     0.4309400000    -0.9946720000 
 N        2.3298570000    -0.0866340000     0.0480280000 
 C        2.8976740000    -1.1453180000     0.8237370000 
 C        2.0131660000    -1.7738030000     1.9046160000 
 N        2.6337100000    -3.0728830000     1.6103780000 
 C        3.0707420000    -2.5970440000     0.2859790000 
 C        4.4206760000    -3.0933420000    -0.1665400000 
 H        2.6825890000     1.2446100000    -1.5174870000 
 H        3.5014590000    -0.3133270000    -1.7438780000 
 H        4.0957030000     0.8443190000    -0.5434150000 
 H        1.4386270000    -0.3747580000    -0.3364610000 
 H        3.8462520000    -0.7990760000     1.2473560000 
 H        0.9521480000    -1.7043960000     1.6216170000 
 H        2.1264020000    -1.4236880000     2.9333590000 
 H        2.0115040000    -3.8706170000     1.6118010000 
 H        2.3149800000    -2.7737760000    -0.4984870000 
 H        5.1775440000    -2.8698150000     0.5888850000 
 H        4.7171140000    -2.6270090000    -1.1100500000 
 H        4.4105100000    -4.1766900000    -0.3181560000 
*
