! RI PBE def2-SVP def2-SVP/J NBO PAL2
% maxcore 2000
% output
    # printlevel mini
    print[ P_Basis ] 0
    print[ P_SCFInfo ] 1
    print[ P_SCFIterInfo ] 1
    print[ P_OrbEn ] 0
    print[ P_Cartesian ] 0
end
*xyz 0 1
 C        4.2273960000     0.2359890000     0.9208370000 
 N        3.1269930000     0.2352340000    -0.0225660000 
 C        3.4265130000    -0.3742260000    -1.2854220000 
 C        4.4193810000     0.3327640000    -2.1801280000 
 N        3.9457950000     1.6778330000    -2.4729720000 
 C        3.3799750000    -1.8675850000    -1.3189210000 
 C        2.2791520000    -1.0715310000    -1.9579390000 
 H        3.9007030000     0.7021190000     1.8528480000 
 H        5.1298730000     0.7660420000     0.5793490000 
 H        4.5125510000    -0.7943210000     1.1484040000 
 H        2.8306360000     1.1888000000    -0.1983890000 
 H        4.5966950000    -0.2855540000    -3.0734650000 
 H        5.3815390000     0.4200020000    -1.6646000000 
 H        3.1317110000     1.6405460000    -3.0747870000 
 H        4.6522120000     2.2184960000    -2.9542040000 
 H        3.1513970000    -2.3691560000    -0.3872860000 
 H        4.0769560000    -2.3900860000    -1.9633180000 
 H        1.3256370000    -1.0423840000    -1.4472310000 
 H        2.2286860000    -1.0531740000    -3.0408100000 
*
