! RI PBE def2-SVP def2-SVP/J NBO PAL2
% maxcore 2000
% output
    # printlevel mini
    print[ P_Basis ] 0
    print[ P_SCFInfo ] 1
    print[ P_SCFIterInfo ] 1
    print[ P_OrbEn ] 0
    print[ P_Cartesian ] 0
end
*xyz 0 1
 C        1.5519640000    -0.5151560000     0.6555040000 
 N        2.7430920000     0.0054530000     0.0211570000 
 C        2.6496100000     0.0775480000    -1.4128060000 
 C        3.9821980000     0.4344390000    -2.0857500000 
 N        4.1934510000    -0.9878230000    -2.3676380000 
 C        4.8304200000    -1.3597300000    -3.5972500000 
 C        2.7615880000    -1.2504280000    -2.2086280000 
 H        1.7084830000    -0.5784070000     1.7340800000 
 H        1.2402150000    -1.5098390000     0.2974700000 
 H        0.7189580000     0.1728560000     0.4834590000 
 H        3.5500860000    -0.5531160000     0.2739290000 
 H        1.7966260000     0.7062410000    -1.6754470000 
 H        4.7419390000     0.9100240000    -1.4583080000 
 H        3.8352680000     1.0359150000    -2.9969480000 
 H        5.8710050000    -1.0247700000    -3.5962630000 
 H        4.3315680000    -0.9274410000    -4.4844920000 
 H        4.8308300000    -2.4475480000    -3.7041410000 
 H        2.5119940000    -2.1839870000    -1.6939700000 
 H        2.2085160000    -1.2063300000    -3.1611690000 
*
