! RI PBE def2-SVP def2-SVP/J NBO PAL2
% maxcore 2000
% output
    # printlevel mini
    print[ P_Basis ] 0
    print[ P_SCFInfo ] 1
    print[ P_SCFIterInfo ] 1
    print[ P_OrbEn ] 0
    print[ P_Cartesian ] 0
end
*xyz 0 1
 C        1.1320810000    -0.1442880000     0.0553100000 
 N        2.5661280000    -0.0467900000    -0.0659820000 
 C        3.1512920000    -0.8176210000    -0.8902070000 
 N        4.5098310000    -0.8164290000    -1.0922220000 
 C        4.9398440000    -1.7706020000    -2.0686170000 
 C        3.6475710000    -2.4002430000    -2.4770970000 
 C        2.6342840000    -1.8568680000    -1.8061830000 
 H        0.7865170000     0.5779490000     0.7968970000 
 H        0.7979010000    -1.1355580000     0.3913240000 
 H        0.6073070000     0.0818420000    -0.8831330000 
 H        5.1143020000    -0.1949580000    -0.5887830000 
 H        5.6337560000    -2.5189520000    -1.6583350000 
 H        5.4437120000    -1.3049840000    -2.9283820000 
 H        3.5895300000    -3.1855830000    -3.2190360000 
 H        1.5889440000    -2.1128070000    -1.8944450000 
*
