! RI PBE def2-SVP def2-SVP/J NBO PAL2
% maxcore 2000
% output
    # printlevel mini
    print[ P_Basis ] 0
    print[ P_SCFInfo ] 1
    print[ P_SCFIterInfo ] 1
    print[ P_OrbEn ] 0
    print[ P_Cartesian ] 0
end
*xyz 0 1
 C        1.8660960000     0.8535870000    -0.1614760000 
 N        3.2412820000     0.5880910000    -0.5148800000 
 C        3.7859950000    -0.5806670000     0.1421020000 
 C        5.2375330000    -0.7623990000    -0.1877900000 
 C        6.2810320000    -0.0288440000     0.6091770000 
 C        6.1425180000    -1.5169040000     0.7328190000 
 C        7.2036560000    -2.4271980000     0.1839440000 
 H        1.5288970000     1.7733000000    -0.6437080000 
 H        1.6904540000     0.9484220000     0.9241040000 
 H        1.2311530000     0.0400590000    -0.5245890000 
 H        3.8209730000     1.3896310000    -0.2978710000 
 H        3.2141970000    -1.4541180000    -0.1958670000 
 H        3.6691720000    -0.5421220000     1.2424350000 
 H        5.4415020000    -0.8691890000    -1.2493320000 
 H        5.9463150000     0.5854910000     1.4381450000 
 H        7.1494180000     0.3563890000     0.0873400000 
 H        5.6800940000    -1.8615440000     1.6538950000 
 H        7.6281340000    -2.0187260000    -0.7370720000 
 H        6.7994460000    -3.4166170000    -0.0476420000 
 H        8.0231320000    -2.5583340000     0.8961650000 
*
