! RI PBE def2-SVP def2-SVP/J NBO PAL2
% maxcore 2000
% output
    # printlevel mini
    print[ P_Basis ] 0
    print[ P_SCFInfo ] 1
    print[ P_SCFIterInfo ] 1
    print[ P_OrbEn ] 0
    print[ P_Cartesian ] 0
end
*xyz 0 1
 C        2.0520540000     0.8594920000    -0.9574120000 
 N        2.2446160000    -0.1972410000     0.0073270000 
 C        1.0530810000    -0.4571660000     0.7746220000 
 C        2.8988330000    -1.3262300000    -0.5863590000 
 C        2.6953570000    -2.7399760000    -0.1411330000 
 C        2.2409130000    -2.3305660000    -1.5071910000 
 N        2.8797550000    -2.8813840000    -2.6681200000 
 H        1.7144130000     1.7672970000    -0.4511040000 
 H        1.3127820000     0.6083450000    -1.7387170000 
 H        3.0001920000     1.0829080000    -1.4531780000 
 H        0.7169960000     0.4794280000     1.2258970000 
 H        1.2650900000    -1.1537340000     1.5863470000 
 H        0.2093640000    -0.8559270000     0.1831480000 
 H        3.9241090000    -1.0896270000    -0.8674410000 
 H        1.9336170000    -2.9686770000     0.5924870000 
 H        3.5782940000    -3.3649010000    -0.0622020000 
 H        1.1635340000    -2.2403080000    -1.6147090000 
 H        3.7794180000    -3.2798010000    -2.4343350000 
 H        3.0338810000    -2.1725310000    -3.3749380000 
*
