! RI PBE def2-SVP def2-SVP/J NBO PAL2
% maxcore 2000
% output
    # printlevel mini
    print[ P_Basis ] 0
    print[ P_SCFInfo ] 1
    print[ P_SCFIterInfo ] 1
    print[ P_OrbEn ] 0
    print[ P_Cartesian ] 0
end
*xyz 0 1
 C        1.2315860000    -0.8388080000     0.4523510000 
 N        2.6586290000    -0.6214900000     0.3873700000 
 C        3.2081240000    -0.0539760000     1.5998010000 
 C        4.6943300000     0.1744040000     1.4850920000 
 C        5.4699040000     0.6180670000     2.7419000000 
 C        6.6316920000    -0.2901360000     2.2950520000 
 C        5.6382640000    -1.0408150000     1.3878520000 
 H        0.8679050000    -1.2116790000    -0.5073440000 
 H        0.6508950000     0.0619030000     0.7157810000 
 H        1.0121320000    -1.6008280000     1.2058030000 
 H        2.8801960000    -0.0202180000    -0.3968520000 
 H        3.0185140000    -0.7606870000     2.4181220000 
 H        2.7126210000     0.8930100000     1.8901000000 
 H        4.8992460000     0.8705450000     0.6620550000 
 H        4.9907850000     0.2349380000     3.6476930000 
 H        5.6680530000     1.6828160000     2.8771340000 
 H        7.1567110000    -0.8607290000     3.0625460000 
 H        7.3694010000     0.2643200000     1.7104550000 
 H        5.2013840000    -1.9056430000     1.8942120000 
 H        5.9747990000    -1.3534940000     0.3989670000 
*
