! RI PBE def2-SVP def2-SVP/J NBO PAL2
% maxcore 2000
% output
    # printlevel mini
    print[ P_Basis ] 0
    print[ P_SCFInfo ] 1
    print[ P_SCFIterInfo ] 1
    print[ P_OrbEn ] 0
    print[ P_Cartesian ] 0
end
*xyz 0 1
 C        1.2929910000    -0.4570580000     0.2649630000 
 N        2.6214480000     0.0980020000     0.1603980000 
 C        3.6318640000    -0.9258470000     0.0399850000 
 C        2.7369440000     1.1453090000    -0.8202030000 
 C        2.5245510000     0.7870280000    -2.2729850000 
 C        3.7496490000     2.2003530000    -0.4970720000 
 C        2.2831250000     2.4947470000    -0.3551640000 
 H        1.2335670000    -1.0976840000     1.1489770000 
 H        0.9956860000    -1.0670400000    -0.6057850000 
 H        0.5650600000     0.3489110000     0.3793580000 
 H        3.6023940000    -1.5728740000     0.9208200000 
 H        4.6201290000    -0.4639200000    -0.0099510000 
 H        3.5088760000    -1.5703920000    -0.8477470000 
 H        1.5209110000     0.3876860000    -2.4436290000 
 H        3.2483680000     0.0401230000    -2.6107330000 
 H        2.6405930000     1.6683940000    -2.9067920000 
 H        4.2904270000     2.6582370000    -1.3167510000 
 H        4.3165630000     2.0749010000     0.4167100000 
 H        1.8168270000     3.1542170000    -1.0774050000 
 H        1.8903380000     2.5615070000     0.6515280000 
*
