! RI PBE def2-SVP def2-SVP/J NBO PAL2
% maxcore 2000
% output
    # printlevel mini
    print[ P_Basis ] 0
    print[ P_SCFInfo ] 1
    print[ P_SCFIterInfo ] 1
    print[ P_OrbEn ] 0
    print[ P_Cartesian ] 0
end
*xyz 0 1
 C        1.0019250000     1.0944230000    -2.4747500000 
 N        2.4460090000     1.0916060000    -2.5133030000 
 C        3.0477250000     0.5306990000    -1.3224000000 
 C        4.5531830000     0.5707270000    -1.3853300000 
 C        5.1733170000    -0.2320060000    -2.4986600000 
 C        5.2160760000     1.8575310000    -0.9802110000 
 C        5.2866300000     0.6556010000    -0.0830170000 
 H        0.6068400000     1.5806860000    -3.3689440000 
 H        0.5766670000     1.5998390000    -1.5905190000 
 H        0.6337670000     0.0643890000    -2.4703120000 
 H        2.7934440000     2.0337820000    -2.6460660000 
 H        2.7137820000    -0.5115700000    -1.2365170000 
 H        2.7124180000     1.0407500000    -0.3997660000 
 H        4.7858120000     0.0860100000    -3.4686150000 
 H        4.9472450000    -1.2964980000    -2.3814740000 
 H        6.2600520000    -0.1193720000    -2.5049730000 
 H        4.5892720000     2.6839360000    -0.6634560000 
 H        6.1154400000     2.1552150000    -1.5060270000 
 H        4.7083100000     0.6740010000     0.8335080000 
 H        6.2341070000     0.1357700000    -0.0041770000 
*
