! RI PBE def2-SVP def2-SVP/J NBO PAL2
% maxcore 2000
% output
    # printlevel mini
    print[ P_Basis ] 0
    print[ P_SCFInfo ] 1
    print[ P_SCFIterInfo ] 1
    print[ P_OrbEn ] 0
    print[ P_Cartesian ] 0
end
*xyz 0 1
 C        2.2907960000    -1.2325790000     0.3593210000 
 N        2.7595210000     0.1158440000     0.1409830000 
 C        3.7006500000     0.5147060000     1.1592570000 
 C        3.1582260000     0.3498340000    -1.2163980000 
 C        3.4621650000     1.7747120000    -1.7027760000 
 N        4.4620510000     1.1992940000    -2.6171630000 
 C        4.5546900000    -0.0171200000    -1.7948570000 
 H        1.8519850000    -1.3131540000     1.3571660000 
 H        3.0896660000    -1.9917180000     0.2838450000 
 H        1.5173430000    -1.4808420000    -0.3708850000 
 H        3.2145120000     0.4603630000     2.1365930000 
 H        4.0213650000     1.5459280000     1.0078480000 
 H        4.6019410000    -0.1213760000     1.2003460000 
 H        2.3897040000    -0.0836020000    -1.8606100000 
 H        3.8910830000     2.3986970000    -0.9085010000 
 H        2.6511050000     2.3267610000    -2.1845990000 
 H        5.3191800000     1.7274960000    -2.7119100000 
 H        5.3373660000     0.0221560000    -1.0253250000 
 H        4.6552440000    -0.9483990000    -2.3585150000 
*
