! RI PBE def2-SVP def2-SVP/J NBO PAL2
% maxcore 2000
% output
    # printlevel mini
    print[ P_Basis ] 0
    print[ P_SCFInfo ] 1
    print[ P_SCFIterInfo ] 1
    print[ P_OrbEn ] 0
    print[ P_Cartesian ] 0
end
*xyz 0 1
 C        1.3647680000    -0.2534460000    -0.8520480000 
 N        2.6645310000    -0.0183540000    -0.2655580000 
 C        2.9197850000     1.3781120000     0.0141000000 
 C        4.3099130000     1.5852610000     0.5872410000 
 C        4.5996130000     3.0234600000     0.9146660000 
 C        4.1687580000     3.5920970000     2.2329300000 
 C        5.6244530000     3.3700870000     1.9486640000 
 H        1.2533420000    -1.3115240000    -1.0976140000 
 H        1.1703230000     0.3355490000    -1.7647490000 
 H        0.5856090000     0.0001920000    -0.1273960000 
 H        3.3870590000    -0.3762420000    -0.8785700000 
 H        2.1739520000     1.7208490000     0.7408640000 
 H        2.7925850000     2.0180980000    -0.8798080000 
 H        5.0556590000     1.2149410000    -0.1286540000 
 H        4.4149020000     0.9717120000     1.4883810000 
 H        4.5384620000     3.7027980000     0.0688790000 
 H        3.6847350000     2.9200550000     2.9325280000 
 H        3.8020020000     4.6104900000     2.2653570000 
 H        6.1185490000     2.5509160000     2.4580600000 
 H        6.2521980000     4.2371490000     1.7846260000 
*
