! RI PBE def2-SVP def2-SVP/J NBO PAL2
% maxcore 2000
% output
    # printlevel mini
    print[ P_Basis ] 0
    print[ P_SCFInfo ] 1
    print[ P_SCFIterInfo ] 1
    print[ P_OrbEn ] 0
    print[ P_Cartesian ] 0
end
*xyz 0 1
 C        2.7663030000    -0.7155880000     1.3971340000 
 N        2.5845910000    -0.2481770000     0.0432110000 
 C        1.1978800000    -0.3200910000    -0.3483330000 
 C        3.1215970000     1.0797220000    -0.1720980000 
 C        4.6160420000     1.1597910000    -0.0334900000 
 C        5.2579670000     2.5063360000     0.0983680000 
 C        5.2533880000     1.5650810000     1.2619160000 
 H        2.3818480000    -1.7341700000     1.4868750000 
 H        2.2384800000    -0.0866020000     2.1393780000 
 H        3.8249620000    -0.7274630000     1.6560140000 
 H        0.8356000000    -1.3454830000    -0.2435610000 
 H        1.0887130000    -0.0266730000    -1.3950770000 
 H        0.5433580000     0.3332950000     0.2589620000 
 H        2.6584600000     1.8223640000     0.5110140000 
 H        2.8441640000     1.3799670000    -1.1885760000 
 H        5.1524960000     0.4258700000    -0.6265300000 
 H        4.6042380000     3.3697940000     0.1469680000 
 H        6.1927660000     2.6822910000    -0.4185980000 
 H        4.5950230000     1.7953000000     2.0918050000 
 H        6.1868030000     1.0951470000     1.5468090000 
*
