! RI PBE def2-SVP def2-SVP/J NBO PAL2
% maxcore 2000
% output
    # printlevel mini
    print[ P_Basis ] 0
    print[ P_SCFInfo ] 1
    print[ P_SCFIterInfo ] 1
    print[ P_OrbEn ] 0
    print[ P_Cartesian ] 0
end
*xyz 0 1
 C        1.1493380000    -0.7421530000     0.2321590000 
 N        2.5316890000    -0.7097520000     0.6561530000 
 C        3.0779830000     0.6226190000     0.8583580000 
 C        2.4802960000     1.2739910000     2.0957710000 
 C        4.5753930000     0.5199230000     0.9713780000 
 C        5.4115730000     0.4429310000    -0.2711050000 
 C        5.4368410000     1.6768220000     0.5818890000 
 H        0.8757190000    -1.7643940000    -0.0359550000 
 H        0.9333600000    -0.0905700000    -0.6323180000 
 H        0.4903990000    -0.4367070000     1.0480110000 
 H        3.1076260000    -1.1879130000    -0.0252770000 
 H        2.8578190000     1.2759230000    -0.0104430000 
 H        2.6706360000     0.6527520000     2.9745310000 
 H        1.4009430000     1.4096190000     2.0027790000 
 H        2.9267300000     2.2572720000     2.2582660000 
 H        4.9122600000    -0.0744210000     1.8158530000 
 H        4.9008720000     0.5091360000    -1.2256650000 
 H        6.2829710000    -0.1998960000    -0.2723920000 
 H        4.9451870000     2.5623250000     0.1957190000 
 H        6.3251670000     1.8782950000     1.1671960000 
*
