! RI PBE def2-SVP def2-SVP/J NBO PAL2
% maxcore 2000
% output
    # printlevel mini
    print[ P_Basis ] 0
    print[ P_SCFInfo ] 1
    print[ P_SCFIterInfo ] 1
    print[ P_OrbEn ] 0
    print[ P_Cartesian ] 0
end
*xyz 0 1
 C        3.8838560000    -1.7060870000     0.0448170000 
 N        3.9843570000    -0.5004430000    -0.7448720000 
 C        2.9530030000    -0.4584860000    -1.7544840000 
 C        3.9574620000     0.7013370000     0.0662030000 
 C        5.1139200000     0.8264950000     1.0185250000 
 C        6.4084400000     1.3265410000     0.5273560000 
 N        5.5819160000     2.1548090000     1.4038730000 
 H        3.9107880000    -2.5758670000    -0.6149430000 
 H        2.9491080000    -1.7549540000     0.6345500000 
 H        4.7265440000    -1.7864090000     0.7325550000 
 H        3.0253250000    -1.3414530000    -2.3933440000 
 H        3.0809080000     0.4259600000    -2.3831690000 
 H        1.9326460000    -0.4297960000    -1.3285090000 
 H        3.0085570000     0.7790770000     0.6348010000 
 H        3.9859060000     1.5594750000    -0.6158300000 
 H        5.1202490000     0.1286360000     1.8507830000 
 H        6.4707250000     1.5800250000    -0.5265810000 
 H        7.3344900000     0.9745910000     0.9682940000 
 H        5.1008100000     2.8642680000     0.8597870000 
*
