! RI PBE def2-SVP def2-SVP/J NBO PAL2
% maxcore 2000
% output
    # printlevel mini
    print[ P_Basis ] 0
    print[ P_SCFInfo ] 1
    print[ P_SCFIterInfo ] 1
    print[ P_OrbEn ] 0
    print[ P_Cartesian ] 0
end
*xyz 0 1
 C        2.9086580000     1.3459940000    -0.1263570000 
 N        2.4667720000    -0.0214100000     0.0276880000 
 C        1.0345740000    -0.0497780000     0.2194990000 
 C        2.9866490000    -0.9691350000    -0.9799470000 
 C        2.5591700000    -2.3852580000    -0.5939320000 
 C        2.4996650000    -0.6679090000    -2.4028410000 
 C        4.5146870000    -0.9288500000    -0.9548450000 
 H        2.5689880000     1.9229980000     0.7373550000 
 H        2.5128230000     1.8465630000    -1.0277130000 
 H        3.9956690000     1.4097370000    -0.1507240000 
 H        0.7821770000     0.5921660000     1.0671510000 
 H        0.6877700000    -1.0539190000     0.4596600000 
 H        0.4583250000     0.3164800000    -0.6485390000 
 H        1.4896760000    -2.5512080000    -0.7343940000 
 H        2.8078570000    -2.5854340000     0.4509380000 
 H        3.0820390000    -3.1118170000    -1.2192130000 
 H        1.4107490000    -0.7219110000    -2.4749140000 
 H        2.9113670000    -1.3952970000    -3.1069560000 
 H        2.8154900000     0.3241970000    -2.7342400000 
 H        4.8807460000    -1.0416510000     0.0683590000 
 H        4.9144850000    -0.0004950000    -1.3664330000 
 H        4.9152650000    -1.7464630000    -1.5575920000 
*
