! RI PBE def2-SVP def2-SVP/J NBO PAL2
% maxcore 2000
% output
    # printlevel mini
    print[ P_Basis ] 0
    print[ P_SCFInfo ] 1
    print[ P_SCFIterInfo ] 1
    print[ P_OrbEn ] 0
    print[ P_Cartesian ] 0
end
*xyz 0 1
 C        0.8084990000    -0.1321660000     0.1088240000 
 N        2.2209180000     0.1155570000    -0.0690220000 
 C        2.5155430000     0.4279970000    -1.4486670000 
 C        2.6919720000     1.1296120000     0.8495630000 
 C        4.2163940000     1.1569650000     0.9642800000 
 C        4.6686910000     2.0930000000     1.9783430000 
 C        5.0193810000     2.8717450000     2.8222050000 
 H        0.4919510000    -0.9472480000    -0.5459310000 
 H        0.1832390000     0.7497830000    -0.1217960000 
 H        0.6084200000    -0.4289750000     1.1405880000 
 H        2.1555850000    -0.3789100000    -2.0902880000 
 H        3.5912430000     0.5171990000    -1.6073980000 
 H        2.0396610000     1.3685030000    -1.7830370000 
 H        2.2817790000     0.9070950000     1.8377000000 
 H        2.3302980000     2.1379810000     0.5753700000 
 H        4.6709070000     1.4305020000     0.0075210000 
 H        4.5679820000     0.1486510000     1.2046360000 
 H        5.3379270000     3.5597080000     3.5689010000 
*
