! RI PBE def2-SVP def2-SVP/J NBO PAL2
% maxcore 2000
% output
    # printlevel mini
    print[ P_Basis ] 0
    print[ P_SCFInfo ] 1
    print[ P_SCFIterInfo ] 1
    print[ P_OrbEn ] 0
    print[ P_Cartesian ] 0
end
*xyz 0 1
 C        1.0869080000    -0.0563890000    -0.2318520000 
 N        2.5031080000    -0.2370460000     0.0091410000 
 C        2.9356030000     0.1841990000     1.3352280000 
 C        2.4021870000    -0.7657670000     2.3704640000 
 C        1.6838440000    -0.4084920000     3.4241920000 
 C        4.4357000000     0.1805500000     1.3723490000 
 C        5.1823240000     1.2443610000     1.6289320000 
 H        0.8541580000    -0.3447190000    -1.2585530000 
 H        0.7369150000     0.9771370000    -0.0732140000 
 H        0.5126640000    -0.7029130000     0.4349710000 
 H        3.0411170000     0.2703930000    -0.6820070000 
 H        2.5818910000     1.2003840000     1.5865810000 
 H        2.6526840000    -1.8117190000     2.2043490000 
 H        1.4161630000     0.6288410000     3.6010460000 
 H        1.3412750000    -1.1358870000     4.1510660000 
 H        4.9030870000    -0.7782950000     1.1577390000 
 H        4.7367090000     2.2112980000     1.8417110000 
 H        6.2646530000     1.1874660000     1.6436390000 
*
