! RI PBE def2-SVP def2-SVP/J NBO PAL2
% maxcore 2000
% output
    # printlevel mini
    print[ P_Basis ] 0
    print[ P_SCFInfo ] 1
    print[ P_SCFIterInfo ] 1
    print[ P_OrbEn ] 0
    print[ P_Cartesian ] 0
end
*xyz 0 1
 C        0.9585750000     0.0764950000     0.1365540000 
 N        2.3641790000     0.0757910000    -0.2075090000 
 C        2.8654230000    -1.2430820000    -0.5765860000 
 C        2.4184880000    -1.5992930000    -1.9711960000 
 C        1.6894220000    -2.6639800000    -2.2646010000 
 C        4.3241730000    -1.2547260000    -0.4972280000 
 C        5.5221170000    -1.2643800000    -0.4270410000 
 H        0.6623820000     1.0825190000     0.4378340000 
 H        0.6984660000    -0.6214870000     0.9496030000 
 H        0.3643470000    -0.1976150000    -0.7377790000 
 H        2.9203450000     0.4398150000     0.5546930000 
 H        2.4913610000    -2.0283600000     0.1066400000 
 H        2.7330530000    -0.9011420000    -2.7418500000 
 H        1.3701300000    -3.3608910000    -1.4955740000 
 H        1.3901250000    -2.8827140000    -3.2829280000 
 H        6.5848150000    -1.2760690000    -0.3692620000 
*
