! RI PBE def2-SVP def2-SVP/J NBO PAL2
% maxcore 2000
% output
    # printlevel mini
    print[ P_Basis ] 0
    print[ P_SCFInfo ] 1
    print[ P_SCFIterInfo ] 1
    print[ P_OrbEn ] 0
    print[ P_Cartesian ] 0
end
*xyz 0 1
 C        3.1887360000    -0.4885640000     1.0924880000 
 N        2.9275750000     0.3062310000    -0.0882110000 
 C        3.2850750000     1.7266350000    -0.0157890000 
 C        2.8153370000     2.3552750000    -1.3287540000 
 C        2.6328030000     2.4605610000     1.1554540000 
 C        4.7911160000     1.8027860000     0.0162630000 
 C        5.5451090000     2.4801430000     0.8697100000 
 H        2.9586110000    -1.5340600000     0.8759000000 
 H        2.6189170000    -0.1958390000     1.9872710000 
 H        4.2504730000    -0.4301830000     1.3429400000 
 H        1.9545420000     0.2250040000    -0.3568230000 
 H        1.7271480000     2.2745950000    -1.4196110000 
 H        3.2680060000     1.8425500000    -2.1795170000 
 H        3.0824330000     3.4124600000    -1.3709260000 
 H        1.5459980000     2.3540720000     1.0992340000 
 H        2.8646230000     3.5276930000     1.1335510000 
 H        2.9625710000     2.0661160000     2.1184330000 
 H        5.2654820000     1.2258980000    -0.7755940000 
 H        5.1242260000     3.0618560000     1.6824820000 
 H        6.6256280000     2.4780710000     0.7820990000 
*
