! RI PBE def2-SVP def2-SVP/J NBO PAL2
% maxcore 2000
% output
    # printlevel mini
    print[ P_Basis ] 0
    print[ P_SCFInfo ] 1
    print[ P_SCFIterInfo ] 1
    print[ P_OrbEn ] 0
    print[ P_Cartesian ] 0
end
*xyz 0 1
 C        1.3591610000    -0.6955260000     0.2908210000 
 N        2.7908990000    -0.6205440000     0.4866110000 
 C        3.2186660000     0.3671600000     1.4646460000 
 C        2.7116640000     0.0013690000     2.8514380000 
 C        4.7466990000     0.5311600000     1.4371230000 
 C        5.4999090000    -0.7366290000     1.8202020000 
 C        5.2351380000     1.0638270000     0.0945140000 
 H        1.1450690000    -1.3214210000    -0.5777190000 
 H        0.8804330000     0.2865210000     0.1323120000 
 H        0.8765800000    -1.1634190000     1.1514300000 
 H        3.2290120000    -0.4104630000    -0.4003730000 
 H        2.7973060000     1.3626280000     1.2169530000 
 H        2.9843750000    -1.0247100000     3.1075700000 
 H        1.6253740000     0.0860950000     2.9173530000 
 H        3.1370250000     0.6737350000     3.6005760000 
 H        4.9686480000     1.2993510000     2.1885890000 
 H        5.2547250000    -1.5548360000     1.1396090000 
 H        5.2592650000    -1.0629820000     2.8337830000 
 H        6.5789720000    -0.5670370000     1.7753580000 
 H        5.1645700000     0.3091080000    -0.6953030000 
 H        6.2870580000     1.3535670000     0.1541200000 
 H        4.6647510000     1.9423420000    -0.2213130000 
*
