! RI PBE def2-SVP def2-SVP/J NBO PAL2
% maxcore 2000
% output
    # printlevel mini
    print[ P_Basis ] 0
    print[ P_SCFInfo ] 1
    print[ P_SCFIterInfo ] 1
    print[ P_OrbEn ] 0
    print[ P_Cartesian ] 0
end
*xyz 0 1
 C        1.6868090000    -0.3608250000    -0.1799230000 
 N        2.9124860000    -0.8650360000     0.4021150000 
 C        3.6589640000     0.1141800000     1.1854280000 
 C        2.8731620000     0.5282660000     2.4242790000 
 C        5.0035170000    -0.4754050000     1.5434480000 
 C        5.0115350000    -1.6795960000     2.4320510000 
 C        6.1216450000     0.0618920000     1.0651750000 
 H        1.2930200000    -1.0974910000    -0.8826020000 
 H        1.8096260000     0.5950490000    -0.7174800000 
 H        0.9277360000    -0.2130830000     0.5909700000 
 H        3.5182710000    -1.2001720000    -0.3369830000 
 H        3.8498910000     1.0276220000     0.5931910000 
 H        2.5672620000    -0.3476910000     3.0002430000 
 H        1.9745710000     1.0859050000     2.1539500000 
 H        3.4837960000     1.1731390000     3.0595010000 
 H        4.3371060000    -2.4476660000     2.0455060000 
 H        4.6590940000    -1.4279000000     3.4371110000 
 H        6.0153400000    -2.0966800000     2.5214640000 
 H        6.0987050000     0.9361020000     0.4227640000 
 H        7.0966740000    -0.3492890000     1.3047120000 
*
