! RI PBE def2-SVP def2-SVP/J NBO PAL2
% maxcore 2000
% output
    # printlevel mini
    print[ P_Basis ] 0
    print[ P_SCFInfo ] 1
    print[ P_SCFIterInfo ] 1
    print[ P_OrbEn ] 0
    print[ P_Cartesian ] 0
end
*xyz 0 1
 C        2.7368600000     0.0416390000     1.3574040000 
 N        2.3929980000    -0.0049830000    -0.0492730000 
 C        2.9814520000    -1.1314430000    -0.7589680000 
 C        2.5055700000    -1.1639190000    -2.1426820000 
 C        2.1182270000    -1.1854760000    -3.2766290000 
 C        4.4548960000    -1.1695390000    -0.7241100000 
 C        5.6529300000    -1.1630890000    -0.6540780000 
 H        2.2657910000     0.9174950000     1.8057880000 
 H        3.8168720000     0.0819990000     1.5580510000 
 H        2.3325840000    -0.8428150000     1.8577130000 
 H        2.6655480000     0.8525910000    -0.5138890000 
 H        2.6195760000    -2.0424170000    -0.2617000000 
 H        1.7715180000    -1.2055780000    -4.2827380000 
 H        6.7163900000    -1.1642050000    -0.6053980000 
*
