! RI PBE def2-SVP def2-SVP/J NBO PAL2
% maxcore 2000
% output
    # printlevel mini
    print[ P_Basis ] 0
    print[ P_SCFInfo ] 1
    print[ P_SCFIterInfo ] 1
    print[ P_OrbEn ] 0
    print[ P_Cartesian ] 0
end
*xyz 0 1
 C        1.8077610000     0.1021330000     0.9805520000 
 N        3.1453680000     0.0592510000     0.4336670000 
 C        3.1947260000     0.3868840000    -0.9778580000 
 C        4.5944350000     0.3618680000    -1.4858150000 
 C        5.0087390000    -0.3514620000    -2.5350970000 
 C        6.3705840000    -0.3576890000    -3.0268850000 
 C        6.7860110000    -1.0626830000    -4.0789090000 
 H        1.8272100000    -0.2042340000     2.0281370000 
 H        1.0825100000    -0.5357410000     0.4476990000 
 H        1.4313650000     1.1284730000     0.9439240000 
 H        3.5531790000    -0.8561730000     0.5777370000 
 H        2.7889510000     1.4021840000    -1.0877040000 
 H        2.5602630000    -0.2691040000    -1.6002220000 
 H        5.3082330000     0.9728460000    -0.9363820000 
 H        4.2919590000    -0.9711480000    -3.0724680000 
 H        7.0823050000     0.2616880000    -2.4849330000 
 H        6.1023550000    -1.6890650000    -4.6431620000 
 H        7.8170250000    -1.0358250000    -4.4094010000 
*
