! RI PBE def2-SVP def2-SVP/J NBO PAL2
% maxcore 2000
% output
    # printlevel mini
    print[ P_Basis ] 0
    print[ P_SCFInfo ] 1
    print[ P_SCFIterInfo ] 1
    print[ P_OrbEn ] 0
    print[ P_Cartesian ] 0
end
*xyz 0 1
 C        1.0242040000     0.0331010000    -0.1394480000 
 N        2.4684640000     0.0853890000    -0.0886400000 
 C        2.9782920000     0.5075130000     1.1997140000 
 C        4.4670080000     0.4933020000     1.2146800000 
 C        5.2169410000     1.5404640000     1.5658210000 
 C        6.6336500000     1.5341290000     1.5971420000 
 C        7.8362840000     1.5634410000     1.6334040000 
 H        0.7009290000    -0.2379520000    -1.1460600000 
 H        0.5298630000     0.9785590000     0.1394920000 
 H        0.6629530000    -0.7414010000     0.5430490000 
 H        2.8224180000     0.7029270000    -0.8085320000 
 H        2.6086240000    -0.2094160000     1.9458090000 
 H        2.6104400000     1.5003610000     1.5144970000 
 H        4.9437460000    -0.4340920000     0.9096890000 
 H        4.7330990000     2.4710100000     1.8565020000 
 H        8.8998730000     1.5786940000     1.6629820000 
*
