! RI PBE def2-SVP def2-SVP/J NBO PAL2
% maxcore 2000
% output
    # printlevel mini
    print[ P_Basis ] 0
    print[ P_SCFInfo ] 1
    print[ P_SCFIterInfo ] 1
    print[ P_OrbEn ] 0
    print[ P_Cartesian ] 0
end
*xyz 0 1
 C        1.1746540000     0.5683540000     0.0778390000 
 N        2.5080520000     0.2495360000    -0.3761720000 
 C        3.5308440000     0.6053090000     0.5907450000 
 C        4.9131800000     0.4564130000     0.0211860000 
 C        5.7165380000    -0.5387910000     0.4038980000 
 C        5.3763740000     1.4224870000    -0.9716850000 
 C        4.7340920000     2.5247290000    -1.3573790000 
 H        0.4509330000     0.3304210000    -0.7040090000 
 H        1.0383780000     1.6251430000     0.3669200000 
 H        0.9280830000    -0.0424190000     0.9515160000 
 H        2.6995100000     0.7051610000    -1.2587660000 
 H        3.4269410000    -0.0549260000     1.4572520000 
 H        3.4050240000     1.6375540000     0.9693810000 
 H        5.4033560000    -1.2680770000     1.1418320000 
 H        6.7121410000    -0.6502900000    -0.0123660000 
 H        6.3451610000     1.2027310000    -1.4146720000 
 H        3.7720350000     2.8093530000    -0.9448530000 
 H        5.1632950000     3.1922120000    -2.0945350000 
*
