! RI PBE def2-SVP def2-SVP/J NBO PAL2
% maxcore 2000
% output
    # printlevel mini
    print[ P_Basis ] 0
    print[ P_SCFInfo ] 1
    print[ P_SCFIterInfo ] 1
    print[ P_OrbEn ] 0
    print[ P_Cartesian ] 0
end
*xyz 0 1
 C        1.2198220000    -0.0521900000    -0.3037590000 
 N        2.6553600000     0.1010710000    -0.2246740000 
 C        3.0666950000     1.0410790000     0.7955030000 
 C        4.5853080000     1.1143210000     0.9925960000 
 C        5.1188680000    -0.2384330000     1.4553660000 
 C        5.2712700000     1.5222650000    -0.3101600000 
 C        4.8679200000     2.1691850000     2.0587160000 
 H        0.9629020000    -0.7196100000    -1.1290220000 
 H        0.6734170000     0.8960480000    -0.4452140000 
 H        0.8489180000    -0.5091650000     0.6181160000 
 H        3.0102110000     0.3997210000    -1.1240060000 
 H        2.6103820000     0.7211100000     1.7403330000 
 H        2.6870460000     2.0625070000     0.6008320000 
 H        4.8648180000    -1.0208840000     0.7383850000 
 H        4.6883160000    -0.5158780000     2.4220320000 
 H        6.2062040000    -0.2083530000     1.5701480000 
 H        5.1636950000     0.7552980000    -1.0819320000 
 H        6.3431000000     1.6672800000    -0.1497500000 
 H        4.8632750000     2.4617800000    -0.6964410000 
 H        4.3737200000     1.9175680000     3.0017140000 
 H        4.5140180000     3.1559640000     1.7459080000 
 H        5.9409250000     2.2448260000     2.2546100000 
*
