! RI PBE def2-SVP def2-SVP/J NBO PAL2
% maxcore 2000
% output
    # printlevel mini
    print[ P_Basis ] 0
    print[ P_SCFInfo ] 1
    print[ P_SCFIterInfo ] 1
    print[ P_OrbEn ] 0
    print[ P_Cartesian ] 0
end
*xyz 0 1
 C        1.2908770000     0.1807760000    -0.3785050000 
 N        2.7180540000     0.1278500000    -0.1499290000 
 C        3.2044720000     1.2459670000     0.6278510000 
 C        4.6944690000     1.1339990000     0.9516600000 
 C        5.5522110000     1.0974140000    -0.3118280000 
 C        5.1072460000     2.2757930000     1.8269040000 
 C        5.5621230000     2.1651620000     3.0669150000 
 H        0.9875080000    -0.6507220000    -1.0178990000 
 H        0.9449130000     1.1186190000    -0.8452990000 
 H        0.7633640000     0.0745390000     0.5735650000 
 H        3.1989900000     0.0947400000    -1.0393610000 
 H        2.6448520000     1.2662490000     1.5690800000 
 H        3.0162450000     2.2203210000     0.1357290000 
 H        4.8416310000     0.1987300000     1.5027710000 
 H        5.3883900000     1.9916970000    -0.9220370000 
 H        5.3304880000     0.2193060000    -0.9232270000 
 H        6.6131540000     1.0575510000    -0.0571670000 
 H        5.0189700000     3.2678130000     1.3832090000 
 H        5.6681780000     1.1965430000     3.5463580000 
 H        5.8463630000     3.0349630000     3.6481090000 
*
