! RI PBE def2-SVP def2-SVP/J NBO PAL2
% maxcore 2000
% output
    # printlevel mini
    print[ P_Basis ] 0
    print[ P_SCFInfo ] 1
    print[ P_SCFIterInfo ] 1
    print[ P_OrbEn ] 0
    print[ P_Cartesian ] 0
end
*xyz 0 1
 C        1.0113960000    -0.0083650000     0.0087730000 
 N        2.4526500000     0.0933070000     0.0536530000 
 C        3.0154450000     0.5011960000    -1.2200500000 
 C        4.4681050000     0.4678400000    -1.2158450000 
 C        5.6727960000     0.4199340000    -1.2085670000 
 C        7.0889580000     0.3735400000    -1.2420970000 
 C        7.8701470000     0.2604130000    -0.1680750000 
 H        0.6400900000    -0.3708150000     0.9686740000 
 H        0.6308750000    -0.6741600000    -0.7843080000 
 H        0.5797800000     0.9827800000    -0.1583980000 
 H        2.8630640000    -0.7888180000     0.3318150000 
 H        2.6808270000     1.5251210000    -1.4307660000 
 H        2.6528880000    -0.1145830000    -2.0645800000 
 H        7.5426170000     0.4344020000    -2.2286630000 
 H        7.4541410000     0.1986480000     0.8303760000 
 H        8.9478110000     0.2272700000    -0.2689920000 
*
