! RI PBE def2-SVP def2-SVP/J NBO PAL2
% maxcore 2000
% output
    # printlevel mini
    print[ P_Basis ] 0
    print[ P_SCFInfo ] 1
    print[ P_SCFIterInfo ] 1
    print[ P_OrbEn ] 0
    print[ P_Cartesian ] 0
end
*xyz 0 1
 C        0.9489560000    -0.0869630000    -0.1042220000 
 N        2.3910780000    -0.0623150000     0.0010550000 
 C        2.9309900000     1.2743280000    -0.1574180000 
 C        4.3821590000     1.2800040000    -0.1719910000 
 C        5.5891310000     1.2827050000    -0.2088810000 
 C        6.9520560000     1.2878900000    -0.2446420000 
 C        8.1571300000     1.2927450000    -0.2791020000 
 H        0.5967720000    -1.1170650000    -0.0333200000 
 H        0.5580340000     0.3503080000    -1.0381120000 
 H        0.5115460000     0.4690310000     0.7298620000 
 H        2.8089110000    -0.6768710000    -0.6857090000 
 H        2.5820330000     1.8896640000     0.6815460000 
 H        2.5738030000     1.7801270000    -1.0743310000 
 H        9.2208700000     1.2967010000    -0.3068870000 
*
