! RI PBE def2-SVP def2-SVP/J NBO PAL2
% maxcore 2000
% output
    # printlevel mini
    print[ P_Basis ] 0
    print[ P_SCFInfo ] 1
    print[ P_SCFIterInfo ] 1
    print[ P_OrbEn ] 0
    print[ P_Cartesian ] 0
end
*xyz 0 1
 C        1.4119330000    -0.0983920000    -0.2769100000 
 N        2.7891810000     0.0348680000     0.1391860000 
 C        3.0262240000     1.1974560000     0.9676420000 
 C        4.4929470000     1.3180870000     1.3372510000 
 C        4.8533910000     2.5665250000     2.1385330000 
 C        4.1517320000     2.6089700000     3.4901830000 
 C        6.3623040000     2.6624900000     2.3183400000 
 H        1.3067820000    -0.9549560000    -0.9459230000 
 H        1.0086660000     0.7918140000    -0.7896700000 
 H        0.7818890000    -0.2849380000     0.5976320000 
 H        3.3923550000     0.0716770000    -0.6735140000 
 H        2.4167230000     1.0869790000     1.8712020000 
 H        2.6917030000     2.1355370000     0.4835710000 
 H        5.0854920000     1.3158290000     0.4128760000 
 H        4.7930250000     0.4230820000     1.8948530000 
 H        4.5266040000     3.4417420000     1.5604480000 
 H        4.4181990000     1.7329950000     4.0908090000 
 H        3.0645520000     2.6264050000     3.3899610000 
 H        4.4444440000     3.4984080000     4.0542800000 
 H        6.7389430000     1.8086370000     2.8906970000 
 H        6.6410200000     3.5714330000     2.8577730000 
 H        6.8799690000     2.6706540000     1.3554680000 
*
