! RI PBE def2-SVP def2-SVP/J NBO PAL2
% maxcore 2000
% output
    # printlevel mini
    print[ P_Basis ] 0
    print[ P_SCFInfo ] 1
    print[ P_SCFIterInfo ] 1
    print[ P_OrbEn ] 0
    print[ P_Cartesian ] 0
end
*xyz 0 1
 C        1.6104840000    -0.1712240000    -0.1866100000 
 N        2.9445170000     0.3682850000    -0.0483180000 
 C        2.9630900000     1.7086130000     0.4956810000 
 C        4.3894070000     2.2351440000     0.5886210000 
 C        4.4915150000     3.6265880000     1.1434570000 
 C        4.0483110000     3.8209690000     2.5605620000 
 C        4.9641130000     4.6331310000     0.4143270000 
 H        1.6556850000    -1.1554700000    -0.6570470000 
 H        0.9276740000     0.4631720000    -0.7767870000 
 H        1.1640620000    -0.3001400000     0.8036360000 
 H        3.4114500000     0.3632850000    -0.9471320000 
 H        2.5133720000     1.6663780000     1.4937800000 
 H        2.3513520000     2.4174830000    -0.0919830000 
 H        4.8428170000     2.2123780000    -0.4079730000 
 H        4.9628210000     1.5419790000     1.2157950000 
 H        4.5792800000     3.1371230000     3.2311760000 
 H        2.9812200000     3.6088980000     2.6784580000 
 H        4.2276140000     4.8425470000     2.8977790000 
 H        5.2891220000     4.4857090000    -0.6101100000 
 H        5.0466930000     5.6365730000     0.8181190000 
*
