! RI PBE def2-SVP def2-SVP/J NBO PAL2
% maxcore 2000
% output
    # printlevel mini
    print[ P_Basis ] 0
    print[ P_SCFInfo ] 1
    print[ P_SCFIterInfo ] 1
    print[ P_OrbEn ] 0
    print[ P_Cartesian ] 0
end
*xyz 0 1
 C        1.3034280000     0.4201790000    -0.1168640000 
 N        2.7156160000     0.1639070000     0.0586520000 
 C        2.9875800000    -0.9041150000     0.9942240000 
 C        4.4890550000    -1.1485020000     1.1056370000 
 C        4.8199670000    -2.2283570000     2.0209950000 
 C        5.0743050000    -3.1259380000     2.7798800000 
 C        5.3888890000    -4.2093230000     3.6930280000 
 H        1.1624730000     1.2706080000    -0.7868070000 
 H        0.7630790000     0.6268810000     0.8222090000 
 H        0.8302920000    -0.4485130000    -0.5832800000 
 H        3.1807920000     1.0097450000     0.3658680000 
 H        2.5045550000    -1.8145940000     0.6250890000 
 H        2.5739190000    -0.7172070000     2.0002790000 
 H        4.9825480000    -0.2272060000     1.4398190000 
 H        4.8833590000    -1.3642750000     0.1075530000 
 H        5.8360030000    -3.8301560000     4.6155400000 
 H        6.0955850000    -4.9107320000     3.2421240000 
 H        4.4895540000    -4.7687910000     3.9629440000 
*
