! RI PBE def2-SVP def2-SVP/J NBO PAL2
% maxcore 2000
% output
    # printlevel mini
    print[ P_Basis ] 0
    print[ P_SCFInfo ] 1
    print[ P_SCFIterInfo ] 1
    print[ P_OrbEn ] 0
    print[ P_Cartesian ] 0
end
*xyz 0 1
 C        0.7278440000     0.1586060000     0.1964110000 
 N        2.1558770000    -0.0364350000     0.0794260000 
 C        2.9235940000     0.9068210000     0.8648000000 
 C        4.4115660000     0.6668280000     0.7020520000 
 C        5.2721510000     1.6341650000     1.5167950000 
 C        5.1691660000     3.0188360000     1.0832020000 
 C        5.0883630000     4.1577300000     0.7108870000 
 H        0.2035960000    -0.5378010000    -0.4610510000 
 H        0.3924490000     1.1813410000    -0.0448120000 
 H        0.4128300000    -0.0562020000     1.2215960000 
 H        2.4308270000     0.0367870000    -0.8927800000 
 H        2.6481030000     0.7687240000     1.9180020000 
 H        2.6900620000     1.9574710000     0.6187840000 
 H        4.6847790000     0.7539290000    -0.3553340000 
 H        4.6414420000    -0.3575310000     1.0076500000 
 H        6.3212610000     1.3275740000     1.4565180000 
 H        4.9953880000     1.5710810000     2.5755330000 
 H        5.0173120000     5.1685780000     0.3861030000 
*
