! RI PBE def2-SVP def2-SVP/J NBO PAL2
% maxcore 2000
% output
    # printlevel mini
    print[ P_Basis ] 0
    print[ P_SCFInfo ] 1
    print[ P_SCFIterInfo ] 1
    print[ P_OrbEn ] 0
    print[ P_Cartesian ] 0
end
*xyz 0 1
 C        1.1522930000     0.1587450000    -0.1086060000 
 N        2.5846820000     0.0670560000     0.0407650000 
 C        3.1497670000    -1.1864900000    -0.0892180000 
 C        2.4941030000    -2.3425440000    -0.2044000000 
 C        3.3664230000     1.1570080000     0.4315720000 
 C        2.7860180000     2.5221330000     0.2017600000 
 N        4.5328900000     1.0886960000     0.9370460000 
 H        0.8428630000    -0.3267630000    -1.0383570000 
 H        0.8364860000     1.1963120000    -0.1357120000 
 H        0.6354820000    -0.3360950000     0.7220250000 
 H        4.2316450000    -1.1759840000    -0.1528030000 
 H        1.4169420000    -2.4251000000    -0.1488520000 
 H        3.0553510000    -3.2524870000    -0.3638190000 
 H        2.3980860000     2.6392500000    -0.8128010000 
 H        3.5795010000     3.2450260000     0.3733870000 
 H        1.9742690000     2.7365820000     0.9019430000 
 H        4.8197110000     0.1324560000     1.1285610000 
*
