! RI PBE def2-SVP def2-SVP/J NBO PAL2
% maxcore 2000
% output
    # printlevel mini
    print[ P_Basis ] 0
    print[ P_SCFInfo ] 1
    print[ P_SCFIterInfo ] 1
    print[ P_OrbEn ] 0
    print[ P_Cartesian ] 0
end
*xyz 0 1
 C        1.1586140000     0.0289840000    -0.1205930000 
 N        2.6014500000     0.0238860000    -0.1441000000 
 C        3.0907360000    -0.2849840000    -1.4662680000 
 C        3.1336270000     1.2722580000     0.3707980000 
 C        4.6300590000     1.2609350000     0.6340220000 
 C        5.0716010000     0.1931210000     1.6171270000 
 N        6.4939300000     0.3299060000     1.9067760000 
 H        0.7774540000    -0.9389650000    -0.4545960000 
 H        0.7197960000     0.8089850000    -0.7711520000 
 H        0.8021660000     0.2005280000     0.8976790000 
 H        2.6650400000    -1.2331000000    -1.8022270000 
 H        4.1765330000    -0.3933110000    -1.4625700000 
 H        2.8266580000     0.4900870000    -2.2106110000 
 H        2.6168000000     1.4791000000     1.3141740000 
 H        2.8924280000     2.1136880000    -0.3085410000 
 H        4.9168180000     2.2402950000     1.0291530000 
 H        5.1833920000     1.1454320000    -0.3057090000 
 H        4.7856160000    -0.7948810000     1.2307230000 
 H        4.5229410000     0.3286630000     2.5558780000 
 H        7.0363990000     0.1728460000     1.0650940000 
 H        6.7881510000    -0.3729710000     2.5734720000 
*
