! RI PBE def2-SVP def2-SVP/J NBO PAL2
% maxcore 2000
% output
    # printlevel mini
    print[ P_Basis ] 0
    print[ P_SCFInfo ] 1
    print[ P_SCFIterInfo ] 1
    print[ P_OrbEn ] 0
    print[ P_Cartesian ] 0
end
*xyz 0 1
 C        0.9936470000     0.0545480000    -0.0153980000 
 N        2.4244240000    -0.1128900000     0.0400140000 
 C        3.0640570000    -0.7634340000    -1.0726840000 
 C        3.1593590000     0.6007810000     0.9137460000 
 C        4.5061210000     0.7495040000     0.9075610000 
 C        5.1509810000     1.4780290000     1.9286580000 
 N        5.6940920000     2.0751680000     2.7555610000 
 H        0.5061310000    -0.9103280000    -0.1755460000 
 H        0.6890260000     0.7326810000    -0.8226600000 
 H        0.6364300000     0.4657410000     0.9286830000 
 H        2.3513000000    -1.4294520000    -1.5585130000 
 H        3.9099890000    -1.3611790000    -0.7245010000 
 H        3.4324250000    -0.0439910000    -1.8157770000 
 H        2.5852740000     1.0809110000     1.6998030000 
 H        5.1338420000     0.3250100000     0.1349740000 
*
