! RI PBE def2-SVP def2-SVP/J NBO PAL2
% maxcore 2000
% output
    # printlevel mini
    print[ P_Basis ] 0
    print[ P_SCFInfo ] 1
    print[ P_SCFIterInfo ] 1
    print[ P_OrbEn ] 0
    print[ P_Cartesian ] 0
end
*xyz 0 1
 C        1.0109810000    -0.2298990000     0.0348500000 
 N        2.3325530000     0.3054410000    -0.2075520000 
 C        2.3544810000     1.0905960000    -1.4214510000 
 C        2.8190330000     1.0345890000     0.9408080000 
 C        4.3332370000     1.2458010000     0.8812870000 
 C        4.8345630000     1.8756590000     2.0906990000 
 N        5.2123500000     2.3726880000     3.0560880000 
 H        0.6981390000    -0.8337320000    -0.8194990000 
 H        0.2500030000     0.5551320000     0.1924480000 
 H        1.0246080000    -0.8731130000     0.9170930000 
 H        2.0015770000     0.4808490000    -2.2552210000 
 H        3.3691330000     1.4129640000    -1.6612740000 
 H        1.7138920000     1.9888500000    -1.3586340000 
 H        2.5911870000     0.4519170000     1.8364250000 
 H        2.3190590000     2.0128220000     1.0610900000 
 H        4.6141850000     1.8747950000     0.0329790000 
 H        4.8290110000     0.2803310000     0.7491630000 
*
