! RI PBE def2-SVP def2-SVP/J NBO PAL2
% maxcore 2000
% output
    # printlevel mini
    print[ P_Basis ] 0
    print[ P_SCFInfo ] 1
    print[ P_SCFIterInfo ] 1
    print[ P_OrbEn ] 0
    print[ P_Cartesian ] 0
end
*xyz 0 1
 C        0.7049280000     0.2467140000     0.3592830000 
 N        2.0913490000     0.6029930000     0.2051000000 
 C        2.8922560000    -0.2436910000    -0.6482520000 
 C        3.3301110000    -1.5103910000     0.0233110000 
 C        3.0554780000    -2.7258160000    -0.4264190000 
 C        2.6636830000     1.5453600000     1.0107600000 
 N        3.8820810000     1.8845660000     1.1485280000 
 H        0.5846520000    -0.7542250000     0.7897600000 
 H        0.1890160000     0.2664800000    -0.6065990000 
 H        0.2172450000     0.9638350000     1.0200630000 
 H        3.7635230000     0.3309500000    -0.9802910000 
 H        2.3126090000    -0.4808530000    -1.5462190000 
 H        3.8963110000    -1.3866430000     0.9439260000 
 H        2.4862140000    -2.8757670000    -1.3393520000 
 H        3.3942210000    -3.6150810000     0.0923160000 
 H        1.9187290000     2.0832360000     1.6021130000 
 H        4.5142870000     1.3227310000     0.5818820000 
*
