! RI PBE def2-SVP def2-SVP/J NBO PAL2
% maxcore 2000
% output
    # printlevel mini
    print[ P_Basis ] 0
    print[ P_SCFInfo ] 1
    print[ P_SCFIterInfo ] 1
    print[ P_OrbEn ] 0
    print[ P_Cartesian ] 0
end
*xyz 0 1
 C        1.2266540000     0.2047650000    -0.2192100000 
 N        2.6183710000    -0.1598550000    -0.1664410000 
 C        3.3658700000     0.2275470000     1.0078380000 
 C        3.5081530000     1.6740770000     1.1759540000 
 C        3.6037650000     2.8636450000     1.3011450000 
 C        3.2957180000    -0.4288550000    -1.3267860000 
 N        2.8561590000    -0.5156430000    -2.5144340000 
 H        0.8141810000     0.1912010000     0.7902510000 
 H        0.6734030000    -0.5215540000    -0.8188280000 
 H        1.0679840000     1.2044730000    -0.6423420000 
 H        4.3579050000    -0.2291780000     0.9488570000 
 H        2.8827930000    -0.1884710000     1.8990330000 
 H        3.6964050000     3.9187170000     1.4095510000 
 H        4.3576800000    -0.6202470000    -1.1553480000 
 H        1.8644690000    -0.2938320000    -2.5783290000 
*
