! RI PBE def2-SVP def2-SVP/J NBO PAL2
% maxcore 2000
% output
    # printlevel mini
    print[ P_Basis ] 0
    print[ P_SCFInfo ] 1
    print[ P_SCFIterInfo ] 1
    print[ P_OrbEn ] 0
    print[ P_Cartesian ] 0
end
*xyz 0 1
 C        1.0063340000    -0.0724570000    -0.1112930000 
 N        2.4395890000    -0.1848100000    -0.0187270000 
 C        3.1125860000     0.0431430000     1.1307510000 
 C        4.4515790000     0.2110810000     1.2328760000 
 C        5.3621660000     0.2039090000     0.0380700000 
 C        5.0096350000     0.3761270000     2.5216730000 
 N        5.4933720000     0.5169600000     3.5621170000 
 H        0.6387350000    -0.6876080000    -0.9337980000 
 H        0.6668860000     0.9584150000    -0.2684290000 
 H        0.5539410000    -0.4443370000     0.8093450000 
 H        2.9589110000    -0.1112880000    -0.8776400000 
 H        2.4989220000     0.0589960000     2.0255340000 
 H        5.0217870000     0.9097710000    -0.7283110000 
 H        5.4189510000    -0.7885230000    -0.4230120000 
 H        6.3737860000     0.4933210000     0.3185530000 
*
