! RI PBE def2-SVP def2-SVP/J NBO PAL2
% maxcore 2000
% output
    # printlevel mini
    print[ P_Basis ] 0
    print[ P_SCFInfo ] 1
    print[ P_SCFIterInfo ] 1
    print[ P_OrbEn ] 0
    print[ P_Cartesian ] 0
end
*xyz 0 1
 C        2.6722360000     0.0131970000     1.0978670000 
 N        2.4106300000     0.1330730000    -0.3232380000 
 C        2.9124140000    -0.9591880000    -1.1170060000 
 C        2.4833000000    -0.8874930000    -2.5611470000 
 C        1.5527190000    -0.0672270000    -3.0201090000 
 C        4.3869590000    -1.0893590000    -1.0477370000 
 N        5.5326510000    -1.1465200000    -0.9620290000 
 H        2.2733730000     0.8910880000     1.6074760000 
 H        3.7377640000    -0.0826570000     1.3512580000 
 H        2.1491110000    -0.8627280000     1.4902000000 
 H        2.7771430000     1.0061320000    -0.6833180000 
 H        2.5123960000    -1.8904990000    -0.6904170000 
 H        2.9925480000    -1.5776240000    -3.2271070000 
 H        1.0293700000     0.6179660000    -2.3640150000 
 H        1.2808170000    -0.0727600000    -4.0686580000 
*
