! RI PBE def2-SVP def2-SVP/J NBO PAL2
% maxcore 2000
% output
    # printlevel mini
    print[ P_Basis ] 0
    print[ P_SCFInfo ] 1
    print[ P_SCFIterInfo ] 1
    print[ P_OrbEn ] 0
    print[ P_Cartesian ] 0
end
*xyz 0 1
 C        0.9021150000     0.1843920000     0.1792580000 
 N        2.2865860000    -0.0446210000    -0.1724680000 
 C        2.7454230000    -1.4124530000     0.0279970000 
 C        2.0574850000    -2.3613250000    -0.9428820000 
 C        4.2661550000    -1.4671450000    -0.0901430000 
 C        4.8321490000    -1.1481210000    -1.4633450000 
 N        6.2891430000    -1.1872850000    -1.4164130000 
 H        0.6964560000     1.2564590000     0.1661920000 
 H        0.6265170000    -0.2068070000     1.1740670000 
 H        0.2381780000    -0.2792310000    -0.5535830000 
 H        2.8730490000     0.5727910000     0.3754410000 
 H        2.4936140000    -1.7545680000     1.0505690000 
 H        2.1825670000    -2.0208970000    -1.9730900000 
 H        0.9872060000    -2.4346890000    -0.7408000000 
 H        2.4772170000    -3.3661150000    -0.8530850000 
 H        4.6148760000    -2.4597030000     0.2102710000 
 H        4.6947000000    -0.7648890000     0.6390470000 
 H        4.4202860000    -0.1912270000    -1.8124750000 
 H        4.5071290000    -1.9104410000    -2.1773950000 
 H        6.6383400000    -0.4540520000    -0.8099810000 
 H        6.6780080000    -1.0121830000    -2.3345810000 
*
