! RI PBE def2-SVP def2-SVP/J NBO PAL2
% maxcore 2000
% output
    # printlevel mini
    print[ P_Basis ] 0
    print[ P_SCFInfo ] 1
    print[ P_SCFIterInfo ] 1
    print[ P_OrbEn ] 0
    print[ P_Cartesian ] 0
end
*xyz 0 1
 C        1.0224730000    -0.0257250000    -0.0346730000 
 N        2.4354290000    -0.0907520000     0.2702400000 
 C        2.8563230000    -1.0670630000     1.2789490000 
 C        2.3805320000    -0.6966740000     2.6855960000 
 C        2.3624830000    -2.4559520000     0.9016240000 
 C        4.3912500000    -1.0785740000     1.2445550000 
 N        4.9459490000     0.2643130000     1.3535300000 
 H        0.8448190000     0.8293820000    -0.6901650000 
 H        0.3607850000     0.0826680000     0.8392520000 
 H        0.7072840000    -0.9178440000    -0.5804500000 
 H        2.7528580000     0.8176410000     0.5878590000 
 H        1.2949120000    -0.5776460000     2.7213590000 
 H        2.8463710000     0.2401830000     3.0004040000 
 H        2.6489010000    -1.4716430000     3.4094540000 
 H        1.2811990000    -2.5490580000     1.0236680000 
 H        2.8296850000    -3.2074370000     1.5431070000 
 H        2.6139010000    -2.6847580000    -0.1370290000 
 H        4.7062690000    -1.5916770000     0.3258990000 
 H        4.7489280000    -1.6736930000     2.0900120000 
 H        5.0423390000     0.6785480000     0.4357880000 
 H        5.8658110000     0.2471610000     1.7702320000 
*
