! RI PBE def2-SVP def2-SVP/J NBO PAL2
% maxcore 2000
% output
    # printlevel mini
    print[ P_Basis ] 0
    print[ P_SCFInfo ] 1
    print[ P_SCFIterInfo ] 1
    print[ P_OrbEn ] 0
    print[ P_Cartesian ] 0
end
*xyz 0 1
 C        2.8987590000     0.4218620000    -1.2809730000 
 N        2.5768790000     0.0103780000     0.0697700000 
 C        3.0322070000    -1.3106280000     0.4832150000 
 C        2.5600770000    -1.5396120000     1.9191900000 
 C        2.5640320000    -2.4645570000    -0.4162190000 
 C        4.5075980000    -1.2980380000     0.4795460000 
 N        5.6568870000    -1.3200430000     0.4708410000 
 H        2.5570840000     1.4481960000    -1.4240910000 
 H        2.4571500000    -0.1979400000    -2.0742500000 
 H        3.9834980000     0.4181200000    -1.4118760000 
 H        1.5815200000     0.0740740000     0.2418830000 
 H        1.4672650000    -1.5706110000     1.9366970000 
 H        2.8998040000    -0.7279800000     2.5623050000 
 H        2.9350750000    -2.4867890000     2.3075820000 
 H        1.4714310000    -2.4933350000    -0.4189450000 
 H        2.9353530000    -3.4217960000    -0.0461730000 
 H        2.9142410000    -2.3413400000    -1.4413320000 
*
