! RI PBE def2-SVP def2-SVP/J NBO PAL2
% maxcore 2000
% output
    # printlevel mini
    print[ P_Basis ] 0
    print[ P_SCFInfo ] 1
    print[ P_SCFIterInfo ] 1
    print[ P_OrbEn ] 0
    print[ P_Cartesian ] 0
end
*xyz 0 1
 C        1.0847160000     0.1365820000     0.0505930000 
 N        2.5191510000    -0.0297860000    -0.0726110000 
 C        2.9744900000    -1.4081520000    -0.0529950000 
 C        2.4583470000    -2.1789440000    -1.2543580000 
 C        4.5073280000    -1.3702470000    -0.0434320000 
 C        5.1063930000    -2.6876290000     0.0789510000 
 N        5.5673260000    -3.7361400000     0.1790660000 
 H        0.8599540000     1.1947700000     0.1926570000 
 H        0.6427030000    -0.4249700000     0.8898090000 
 H        0.5834660000    -0.1797390000    -0.8657710000 
 H        2.9736350000     0.4778840000     0.6766190000 
 H        2.6448090000    -1.9343430000     0.8612690000 
 H        2.7281070000    -1.6611180000    -2.1786730000 
 H        1.3731830000    -2.2836210000    -1.2235660000 
 H        2.8844450000    -3.1837830000    -1.2747550000 
 H        4.8647260000    -0.7585380000     0.7916620000 
 H        4.8622400000    -0.8981260000    -0.9644640000 
*
