! RI PBE def2-SVP def2-SVP/J NBO PAL2
% maxcore 2000
% output
    # printlevel mini
    print[ P_Basis ] 0
    print[ P_SCFInfo ] 1
    print[ P_SCFIterInfo ] 1
    print[ P_OrbEn ] 0
    print[ P_Cartesian ] 0
end
*xyz 0 1
 C        2.6650760000     1.3074290000     0.3569470000 
 N        2.3026260000    -0.0715740000     0.0920510000 
 C        2.8647990000    -1.0201550000     1.0289410000 
 C        2.4211990000    -2.3813380000     0.7389710000 
 C        2.0620010000    -3.4971830000     0.4940320000 
 C        4.3476080000    -0.9784360000     1.0911310000 
 N        5.4924860000    -0.8751060000     1.1050040000 
 H        2.1995870000     1.9421860000    -0.3974320000 
 H        3.7475990000     1.4970270000     0.3556600000 
 H        2.2674680000     1.6050640000     1.3308450000 
 H        2.5491030000    -0.3423470000    -0.8517240000 
 H        2.5095740000    -0.7468520000     2.0318620000 
 H        1.7400430000    -4.4888660000     0.2778710000 
*
