! RI PBE def2-SVP def2-SVP/J NBO PAL2
% maxcore 2000
% output
    # printlevel mini
    print[ P_Basis ] 0
    print[ P_SCFInfo ] 1
    print[ P_SCFIterInfo ] 1
    print[ P_OrbEn ] 0
    print[ P_Cartesian ] 0
end
*xyz 0 1
 C        0.8106300000    -0.0158120000    -1.6312740000 
 N        2.2557430000    -0.0442750000    -1.6122840000 
 C        2.8420150000     1.1488960000    -1.0330530000 
 C        4.3307120000     1.0600890000    -1.0157020000 
 C        5.1464610000     1.9543260000    -1.5610770000 
 C        6.6361470000     1.8743710000    -1.5296880000 
 N        7.1754460000     1.9589720000    -2.8809280000 
 H        0.4294210000    -0.9096490000    -2.1289130000 
 H        0.3840470000     0.8681520000    -2.1349080000 
 H        0.4319140000    -0.0230030000    -0.6050840000 
 H        2.6147540000    -0.1667070000    -2.5510880000 
 H        2.4703150000     1.2248230000    -0.0021970000 
 H        2.5315760000     2.0773970000    -1.5443190000 
 H        4.7454910000     0.1843500000    -0.5185670000 
 H        4.7332720000     2.8158760000    -2.0836100000 
 H        6.9368770000     0.9723330000    -0.9752060000 
 H        7.0262770000     2.7333060000    -0.9703550000 
 H        6.9066630000     1.1414010000    -3.4146900000 
 H        8.1869400000     1.9878650000    -2.8623380000 
*
