! RI PBE def2-SVP def2-SVP/J NBO PAL2
% maxcore 2000
% output
    # printlevel mini
    print[ P_Basis ] 0
    print[ P_SCFInfo ] 1
    print[ P_SCFIterInfo ] 1
    print[ P_OrbEn ] 0
    print[ P_Cartesian ] 0
end
*xyz 0 1
 C        1.4933290000    -0.3795480000     0.1128570000 
 N        2.9298970000    -0.4292060000     0.2880850000 
 C        3.6402240000     0.3998780000    -0.6491080000 
 C        5.1131160000     0.4853280000    -0.3427530000 
 C        5.6846230000     0.0228200000     0.7676900000 
 C        5.9079290000     1.1222660000    -1.3468100000 
 N        6.5150130000     1.6427080000    -2.1762600000 
 H        1.0172770000    -1.0705010000     0.8103640000 
 H        1.1566050000    -0.6300980000    -0.9057210000 
 H        1.1319020000     0.6255670000     0.3450270000 
 H        3.2548590000    -1.3853490000     0.2081620000 
 H        3.2223020000     1.4133310000    -0.6021120000 
 H        3.5229910000     0.0825630000    -1.7004150000 
 H        5.0763640000    -0.4418800000     1.5332650000 
 H        6.7505780000     0.1156230000     0.9301400000 
*
