! RI PBE def2-SVP def2-SVP/J NBO PAL2
% maxcore 2000
% output
    # printlevel mini
    print[ P_Basis ] 0
    print[ P_SCFInfo ] 1
    print[ P_SCFIterInfo ] 1
    print[ P_OrbEn ] 0
    print[ P_Cartesian ] 0
end
*xyz 0 1
 C        0.9885830000    -0.3801290000    -2.2706250000 
 N        2.4323840000    -0.3700820000    -2.2022480000 
 C        2.9481340000    -0.9300460000    -0.9699120000 
 C        4.4706770000    -0.9417390000    -0.9255260000 
 C        4.9707600000    -1.2755700000     0.4709050000 
 C        5.0439470000    -1.8967060000    -1.9669070000 
 N        6.4873730000    -1.7288400000    -2.0964230000 
 H        0.6561130000     0.1167570000    -3.1843350000 
 H        0.4953300000     0.1081610000    -1.4128690000 
 H        0.6311880000    -1.4131680000    -2.3086100000 
 H        2.7713500000     0.5792450000    -2.3023910000 
 H        2.5795850000    -1.9615270000    -0.8892550000 
 H        2.5653430000    -0.4008280000    -0.0780340000 
 H        4.8169530000     0.0721700000    -1.1804560000 
 H        4.5626950000    -2.2355770000     0.8046420000 
 H        4.6702210000    -0.5162610000     1.1974610000 
 H        6.0585690000    -1.3538240000     0.4758850000 
 H        4.4946980000    -1.7588700000    -2.9070440000 
 H        4.8556890000    -2.9237510000    -1.6319320000 
 H        6.6935340000    -0.8511340000    -2.5592920000 
 H        6.8777800000    -2.4591430000    -2.6781520000 
*
