! RI PBE def2-SVP def2-SVP/J NBO PAL2
% maxcore 2000
% output
    # printlevel mini
    print[ P_Basis ] 0
    print[ P_SCFInfo ] 1
    print[ P_SCFIterInfo ] 1
    print[ P_OrbEn ] 0
    print[ P_Cartesian ] 0
end
*xyz 0 1
 C        1.0310900000     0.1467500000     0.2564840000 
 N        2.4629200000    -0.0520570000     0.1602250000 
 C        3.1606640000     0.2896170000     1.3768010000 
 C        4.6276240000    -0.1515070000     1.3128960000 
 C        5.4190830000     0.5419300000     0.2047840000 
 C        5.2580880000     0.0797800000     2.6084970000 
 N        5.7491220000     0.2763740000     3.6296990000 
 H        0.5660420000    -0.0742180000    -0.7057830000 
 H        0.7390710000     1.1663140000     0.5552560000 
 H        0.6147980000    -0.5464800000     0.9919930000 
 H        2.8248700000     0.4941390000    -0.6107130000 
 H        2.6746140000    -0.2357440000     2.2040430000 
 H        3.1205360000     1.3654900000     1.6219180000 
 H        4.6382510000    -1.2323530000     1.1345790000 
 H        5.3754910000     1.6276400000     0.3176740000 
 H        5.0154570000     0.2690220000    -0.7714390000 
 H        6.4668800000     0.2406130000     0.2271080000 
*
