! RI PBE def2-SVP def2-SVP/J NBO PAL2
% maxcore 2000
% output
    # printlevel mini
    print[ P_Basis ] 0
    print[ P_SCFInfo ] 1
    print[ P_SCFIterInfo ] 1
    print[ P_OrbEn ] 0
    print[ P_Cartesian ] 0
end
*xyz 0 1
 C        1.0251020000     0.1520700000     0.1475940000 
 N        2.4381430000     0.4355350000     0.0409090000 
 C        2.9446080000     0.2209130000    -1.3022920000 
 C        4.3934130000     0.3463370000    -1.3584640000 
 C        5.5931080000     0.4156080000    -1.3830830000 
 C        7.0429270000     0.5492870000    -1.4131490000 
 N        7.5630610000     0.9286020000    -0.1038240000 
 H        0.7040190000     0.2745280000     1.1833410000 
 H        0.7420430000    -0.8608980000    -0.1857860000 
 H        0.4612690000     0.8670860000    -0.4587760000 
 H        2.9666140000    -0.1339350000     0.6893890000 
 H        2.4864230000     0.9656760000    -1.9648360000 
 H        2.6610170000    -0.7668370000    -1.7111270000 
 H        7.3019170000     1.2538400000    -2.2194760000 
 H        7.4846540000    -0.4142580000    -1.6897610000 
 H        7.1236590000     1.7875690000     0.2037240000 
 H        8.5584330000     1.1036870000    -0.1679540000 
*
