! RI PBE def2-SVP def2-SVP/J NBO PAL2
% maxcore 2000
% output
    # printlevel mini
    print[ P_Basis ] 0
    print[ P_SCFInfo ] 1
    print[ P_SCFIterInfo ] 1
    print[ P_OrbEn ] 0
    print[ P_Cartesian ] 0
end
*xyz 0 1
 C        1.1025260000     0.1748670000    -0.1317470000 
 N        2.5418480000     0.0640110000    -0.0531530000 
 C        2.9783300000    -1.0276050000     0.7965440000 
 C        4.4914480000    -1.0870500000     0.8742620000 
 C        5.0261150000    -2.2214480000     1.7388300000 
 C        6.5347560000    -2.3684840000     1.5747800000 
 N        4.6029300000    -2.0241260000     3.1221530000 
 H        0.8286360000     1.0495330000    -0.7255060000 
 H        0.6030040000     0.2515630000     0.8490080000 
 H        0.6957580000    -0.7060830000    -0.6369630000 
 H        2.9294550000     0.9324440000     0.2960820000 
 H        2.6048270000    -1.9611570000     0.3570570000 
 H        2.5589000000    -0.9748360000     1.8136370000 
 H        4.8767690000    -0.1367950000     1.2726550000 
 H        4.8934470000    -1.1782210000    -0.1392420000 
 H        4.5526050000    -3.1522860000     1.4007030000 
 H        7.0446790000    -1.4467560000     1.8743440000 
 H        6.8098870000    -2.5815640000     0.5379330000 
 H        6.9176620000    -3.1807750000     2.1986370000 
 H        5.0494870000    -1.1946100000     3.5002560000 
 H        4.9061320000    -2.8012110000     3.6972400000 
*
