! RI PBE def2-SVP def2-SVP/J NBO PAL2
% maxcore 2000
% output
    # printlevel mini
    print[ P_Basis ] 0
    print[ P_SCFInfo ] 1
    print[ P_SCFIterInfo ] 1
    print[ P_OrbEn ] 0
    print[ P_Cartesian ] 0
end
*xyz 0 1
 C        0.8135210000    -0.0666340000    -0.4756710000 
 N        2.2517080000    -0.2025600000    -0.3829410000 
 C        2.9712690000     0.9014550000    -0.9828590000 
 C        4.4631060000     0.7927480000    -0.7220360000 
 C        4.8123180000     0.8563790000     0.7668290000 
 C        4.5193360000     2.1574430000     1.3475710000 
 N        4.2814720000     3.1940410000     1.7851630000 
 H        0.3313820000    -0.9516970000    -0.0565720000 
 H        0.4434570000     0.0742110000    -1.5043540000 
 H        0.4913370000     0.7959920000     0.1130960000 
 H        2.5399490000    -1.0697010000    -0.8208250000 
 H        2.5934000000     1.8293090000    -0.5386540000 
 H        2.7985800000     0.9864310000    -2.0695310000 
 H        4.9874330000     1.5860060000    -1.2607040000 
 H        4.8378980000    -0.1580920000    -1.1158140000 
 H        5.8724490000     0.6433560000     0.9276060000 
 H        4.2319860000     0.1041140000     1.3078970000 
*
