! RI PBE def2-SVP def2-SVP/J NBO PAL2
% maxcore 2000
% output
    # printlevel mini
    print[ P_Basis ] 0
    print[ P_SCFInfo ] 1
    print[ P_SCFIterInfo ] 1
    print[ P_OrbEn ] 0
    print[ P_Cartesian ] 0
end
*xyz 0 1
 C        0.7828540000    -0.1005000000     0.0926530000 
 N        2.1390770000    -0.1789270000    -0.3881110000 
 C        2.7126290000     1.0253360000    -0.9541190000 
 C        3.1055980000     2.0491070000     0.0691410000 
 C        2.6579100000     3.2962910000     0.0778930000 
 N        2.8856010000    -1.1072140000     0.2117340000 
 C        4.1601190000    -1.1052900000     0.1549920000 
 H        0.6763720000     0.5655780000     0.9594800000 
 H        0.4683800000    -1.1021660000     0.3800000000 
 H        0.1304730000     0.2659610000    -0.7040570000 
 H        1.9738790000     1.4527180000    -1.6372710000 
 H        3.5754740000     0.7370580000    -1.5648910000 
 H        3.7852930000     1.7171480000     0.8499750000 
 H        1.9714900000     3.6570100000    -0.6830200000 
 H        2.9628520000     4.0058940000     0.8384570000 
 H        4.6663620000    -1.9424960000     0.6200230000 
 H        4.7674280000    -0.3422190000    -0.3314680000 
*
