! RI PBE def2-SVP def2-SVP/J NBO PAL2
% maxcore 2000
% output
    # printlevel mini
    print[ P_Basis ] 0
    print[ P_SCFInfo ] 1
    print[ P_SCFIterInfo ] 1
    print[ P_OrbEn ] 0
    print[ P_Cartesian ] 0
end
*xyz 0 1
 C        1.0003210000     0.2690690000     0.2632490000 
 N        2.4259840000     0.2837990000     0.4992960000 
 C        3.2398640000     1.2042460000    -0.2702560000 
 C        2.6263890000     2.5065100000    -0.4590280000 
 C        2.1573370000     3.5964540000    -0.6336750000 
 N        2.9233290000    -0.9290320000     0.7698260000 
 C        4.1494600000    -1.2226060000     0.5793110000 
 H        0.5889900000     1.2654220000     0.4185840000 
 H        0.5577090000    -0.4248640000     0.9751160000 
 H        0.7484850000    -0.0626210000    -0.7540750000 
 H        3.4947410000     0.7720460000    -1.2546290000 
 H        4.1880050000     1.3491890000     0.2601710000 
 H        1.7368640000     4.5625440000    -0.7852810000 
 H        4.4595980000    -2.2159520000     0.8814220000 
 H        4.9035220000    -0.5589930000     0.1580590000 
*
