! RI PBE def2-SVP def2-SVP/J NBO PAL2
% maxcore 2000
% output
    # printlevel mini
    print[ P_Basis ] 0
    print[ P_SCFInfo ] 1
    print[ P_SCFIterInfo ] 1
    print[ P_OrbEn ] 0
    print[ P_Cartesian ] 0
end
*xyz 0 1
 C        1.7136650000     0.3981730000    -0.4579820000 
 N        3.0590430000     0.3055350000     0.0651520000 
 C        3.5882330000    -1.0394520000     0.0179190000 
 C        5.0458660000    -1.1145180000     0.4527010000 
 C        5.2220980000    -0.6839150000     1.8997280000 
 N        5.4969990000    -2.4860270000     0.2712960000 
 C        6.9301000000    -2.6697450000     0.3528410000 
 H        1.3397080000     1.4168700000    -0.3374430000 
 H        0.9968810000    -0.2911660000     0.0193320000 
 H        1.7208150000     0.1742720000    -1.5285660000 
 H        3.0698630000     0.6411090000     1.0195590000 
 H        3.5182680000    -1.3802870000    -1.0232430000 
 H        3.0053900000    -1.7583910000     0.6219730000 
 H        5.6158710000    -0.4147610000    -0.1851620000 
 H        4.6174410000    -1.3131370000     2.5590140000 
 H        4.9345830000     0.3610080000     2.0357060000 
 H        6.2633880000    -0.7651610000     2.2161360000 
 H        5.1738070000    -2.8166620000    -0.6294460000 
 H        7.2757620000    -2.5483420000     1.3816700000 
 H        7.5055030000    -1.9708620000    -0.2777880000 
 H        7.1812150000    -3.6879410000     0.0496230000 
*
