! RI PBE def2-SVP def2-SVP/J NBO PAL2
% maxcore 2000
% output
    # printlevel mini
    print[ P_Basis ] 0
    print[ P_SCFInfo ] 1
    print[ P_SCFIterInfo ] 1
    print[ P_OrbEn ] 0
    print[ P_Cartesian ] 0
end
*xyz 0 1
 C        1.0202520000    -0.1298060000     0.0227310000 
 N        2.4504880000    -0.0831640000    -0.1100220000 
 C        2.9762210000     0.8881280000    -0.7574100000 
 C        2.1755820000     1.9920790000    -1.3920790000 
 N        4.3390240000     0.9229700000    -0.8782660000 
 C        5.0414950000     1.9654650000    -1.5822140000 
 C        5.0786320000    -0.1515990000    -0.2578360000 
 H        0.7429020000    -1.0146980000     0.5984250000 
 H        0.4979690000    -0.1955370000    -0.9434030000 
 H        0.6059760000     0.7423560000     0.5501980000 
 H        1.4697310000     1.5653270000    -2.1093370000 
 H        2.7729950000     2.7401480000    -1.9060290000 
 H        1.5786960000     2.4962710000    -0.6276600000 
 H        4.8816390000     2.9567060000    -1.1427370000 
 H        4.7739430000     2.0156400000    -2.6438940000 
 H        6.1092140000     1.7598970000    -1.5299290000 
 H        4.7792270000    -1.1217050000    -0.6648310000 
 H        4.8874460000    -0.1909570000     0.8184180000 
 H        6.1431890000     0.0008790000    -0.4312050000 
*
