! RI PBE def2-SVP def2-SVP/J NBO PAL2
% maxcore 2000
% output
    # printlevel mini
    print[ P_Basis ] 0
    print[ P_SCFInfo ] 1
    print[ P_SCFIterInfo ] 1
    print[ P_OrbEn ] 0
    print[ P_Cartesian ] 0
end
*xyz 0 1
 C        1.0567920000    -0.0663220000    -0.1240670000 
 N        2.4721460000     0.1490070000     0.0265600000 
 C        2.9114430000     1.2464640000     0.4952060000 
 C        2.1029740000     2.4276710000     0.9428990000 
 N        4.2813300000     1.3629520000     0.6029370000 
 C        5.0115200000     2.4268820000     1.0706030000 
 C        6.3423220000     2.4751180000     1.1484800000 
 H        0.8953390000    -1.0626220000    -0.5382470000 
 H        0.5857590000     0.6493850000    -0.8105820000 
 H        0.5131020000    -0.0202740000     0.8286570000 
 H        1.0408180000     2.2347270000     0.8161940000 
 H        2.3614510000     3.3192590000     0.3660010000 
 H        2.2882860000     2.6511070000     1.9966110000 
 H        4.7752460000     0.5406530000     0.2880520000 
 H        4.4201530000     3.2755150000     1.3924670000 
 H        6.9693080000     1.6474920000     0.8368030000 
 H        6.8288230000     3.3597950000     1.5322260000 
*
