! RI PBE def2-SVP def2-SVP/J NBO PAL2
% maxcore 2000
% output
    # printlevel mini
    print[ P_Basis ] 0
    print[ P_SCFInfo ] 1
    print[ P_SCFIterInfo ] 1
    print[ P_OrbEn ] 0
    print[ P_Cartesian ] 0
end
*xyz 0 1
 C        0.8544290000    -0.5130970000     0.4982890000 
 N        2.2726900000    -0.3262550000     0.3338950000 
 C        2.9373110000     0.0960660000     1.5504280000 
 C        2.7135690000     0.1338460000    -0.8983760000 
 N        1.9755210000     0.5161370000    -1.8703630000 
 C        4.1659970000     0.0806550000    -1.1804370000 
 C        5.0209490000    -0.8034720000    -0.6813140000 
 H        0.6783720000    -1.0752420000     1.4172420000 
 H        0.4482490000    -1.0889640000    -0.3351400000 
 H        0.3000570000     0.4354920000     0.5735920000 
 H        2.4580260000     0.9902250000     1.9743220000 
 H        3.9793370000     0.3313560000     1.3540260000 
 H        2.8937470000    -0.6984940000     2.3005610000 
 H        0.9889870000     0.5212450000    -1.6235310000 
 H        4.4823310000     0.7848310000    -1.9419400000 
 H        4.7144670000    -1.5500620000     0.0430140000 
 H        6.0550510000    -0.8223690000    -1.0045680000 
*
