! RI PBE def2-SVP def2-SVP/J NBO PAL2
% maxcore 2000
% output
    # printlevel mini
    print[ P_Basis ] 0
    print[ P_SCFInfo ] 1
    print[ P_SCFIterInfo ] 1
    print[ P_OrbEn ] 0
    print[ P_Cartesian ] 0
end
*xyz 0 1
 C        1.0056450000     0.4169430000    -0.1172670000 
 N        2.3738520000    -0.0078260000     0.0552970000 
 C        3.0758320000     0.5336230000     1.1877570000 
 C        3.1170590000    -0.5430270000    -0.9689590000 
 N        4.3902930000    -0.6621230000    -1.0235010000 
 C        2.3674150000    -1.0661710000    -2.0880020000 
 C        1.7796020000    -1.5126320000    -3.0343420000 
 H        0.4261970000     0.1789790000     0.7786610000 
 H        0.5612360000    -0.1034250000    -0.9628340000 
 H        0.9321800000     1.4973400000    -0.2986080000 
 H        2.3555140000     0.7550090000     1.9752430000 
 H        3.6176950000     1.4592850000     0.9480380000 
 H        3.7911690000    -0.1924600000     1.5826850000 
 H        4.8422360000    -0.2449400000    -0.2140020000 
 H        1.2725850000    -1.9133720000    -3.8803750000 
*
