! RI PBE def2-SVP def2-SVP/J NBO PAL2
% maxcore 2000
% output
    # printlevel mini
    print[ P_Basis ] 0
    print[ P_SCFInfo ] 1
    print[ P_SCFIterInfo ] 1
    print[ P_OrbEn ] 0
    print[ P_Cartesian ] 0
end
*xyz 0 1
 C        3.6626860000     0.6262770000    -0.9483870000 
 N        3.1890320000    -0.7391910000    -0.8543590000 
 C        3.5720400000    -1.4246900000     0.3782400000 
 C        2.7319930000    -2.6932850000     0.5113970000 
 N        2.8490130000    -3.5181810000    -0.6840800000 
 C        5.0409640000    -1.7238910000     0.4388800000 
 C        5.9096160000    -1.1096430000     1.2309060000 
 H        3.3975470000     1.0332610000    -1.9262920000 
 H        4.7479120000     0.7403680000    -0.8076740000 
 H        3.1623720000     1.2377730000    -0.1919550000 
 H        3.5428650000    -1.2779880000    -1.6368890000 
 H        3.3127510000    -0.7599880000     1.2108120000 
 H        1.6968860000    -2.3961610000     0.7284250000 
 H        3.0982200000    -3.2658530000     1.3678360000 
 H        2.2082550000    -3.1873520000    -1.3942570000 
 H        2.6009040000    -4.4777830000    -0.4872010000 
 H        5.3821330000    -2.4919760000    -0.2531800000 
 H        5.5931590000    -0.3430460000     1.9328630000 
 H        6.9667410000    -1.3514790000     1.2159830000 
*
