! RI PBE def2-SVP def2-SVP/J NBO PAL2
% maxcore 2000
% output
    # printlevel mini
    print[ P_Basis ] 0
    print[ P_SCFInfo ] 1
    print[ P_SCFIterInfo ] 1
    print[ P_OrbEn ] 0
    print[ P_Cartesian ] 0
end
*xyz 0 1
 C        2.6646530000     0.2014730000    -0.9973750000 
 N        2.3619240000    -0.7337160000     0.0672550000 
 C        2.9025010000    -0.3576680000     1.3616240000 
 C        2.3629510000    -1.2996040000     2.4367600000 
 N        2.8004630000    -0.8800210000     3.7526840000 
 C        4.3720950000    -0.3245540000     1.3950090000 
 C        5.5742650000    -0.3421140000     1.3963050000 
 H        2.2406070000    -0.1696860000    -1.9320950000 
 H        3.7396510000     0.3787650000    -1.1481830000 
 H        2.1922680000     1.1630310000    -0.7792770000 
 H        2.7070780000    -1.6544810000    -0.1775740000 
 H        2.5383160000     0.6488990000     1.5981080000 
 H        2.6541100000    -2.3283630000     2.1667340000 
 H        1.2733010000    -1.2465330000     2.3865080000 
 H        3.8059620000    -0.9745090000     3.8361070000 
 H        2.3808810000    -1.4570120000     4.4693340000 
 H        6.6388240000    -0.3437750000     1.3951740000 
*
