! RI PBE def2-SVP def2-SVP/J NBO PAL2
% maxcore 2000
% output
    # printlevel mini
    print[ P_Basis ] 0
    print[ P_SCFInfo ] 1
    print[ P_SCFIterInfo ] 1
    print[ P_OrbEn ] 0
    print[ P_Cartesian ] 0
end
*xyz 0 1
 C        1.1699470000     0.3911930000     2.3802030000 
 N        2.6068810000     0.2918780000     2.2679290000 
 C        3.0518070000    -0.8214080000     1.4618690000 
 C        4.5825360000    -0.8210920000     1.3402010000 
 N        5.1154560000     0.3972000000     0.7571890000 
 C        5.1929440000    -1.1148460000     2.6826240000 
 C        6.1288080000    -0.3906590000     3.2784630000 
 H        0.9061340000     1.2206890000     3.0393070000 
 H        0.6862900000    -0.5220880000     2.7651020000 
 H        0.7385720000     0.6007160000     1.3970920000 
 H        3.0304560000     0.2326850000     3.1867210000 
 H        2.6175530000    -0.7125290000     0.4612640000 
 H        2.7126430000    -1.7997180000     1.8505430000 
 H        4.8470490000    -1.6560140000     0.6779500000 
 H        4.6073260000     1.1842500000     1.1492500000 
 H        4.9392520000     0.4069010000    -0.2393000000 
 H        4.8009170000    -2.0011470000     3.1802060000 
 H        6.5436230000     0.4832160000     2.7894170000 
 H        6.5167130000    -0.6650140000     4.2527580000 
*
