! RI PBE def2-SVP def2-SVP/J NBO PAL2
% maxcore 2000
% output
    # printlevel mini
    print[ P_Basis ] 0
    print[ P_SCFInfo ] 1
    print[ P_SCFIterInfo ] 1
    print[ P_OrbEn ] 0
    print[ P_Cartesian ] 0
end
*xyz 0 1
 C        1.2326360000     0.0640230000     0.3585390000 
 N        2.6524870000    -0.0762280000     0.1264470000 
 C        2.9663300000    -0.9750970000    -0.9628850000 
 C        4.4682210000    -1.0325390000    -1.1804440000 
 N        4.8792540000    -2.0587020000    -2.1162200000 
 C        4.4256430000    -1.7975600000    -3.4627790000 
 C        6.3105030000    -2.2450290000    -2.0852530000 
 H        1.0607680000     0.6998790000     1.2293930000 
 H        0.7065960000    -0.8921060000     0.5199170000 
 H        0.7680230000     0.5528220000    -0.5025220000 
 H        3.1061470000    -0.3997810000     0.9721470000 
 H        2.4652190000    -0.5904820000    -1.8573960000 
 H        2.5907850000    -2.0016200000    -0.8058020000 
 H        4.9438640000    -1.2590270000    -0.2190350000 
 H        4.8271990000    -0.0300260000    -1.4796270000 
 H        3.3362320000    -1.7620600000    -3.5037250000 
 H        4.7547950000    -2.6038610000    -4.1218980000 
 H        4.8162180000    -0.8450340000    -3.8677860000 
 H        6.6309550000    -2.5063550000    -1.0739990000 
 H        6.8701530000    -1.3438610000    -2.3980730000 
 H        6.5924610000    -3.0631650000    -2.7521910000 
*
