! RI PBE def2-SVP def2-SVP/J NBO PAL2
% maxcore 2000
% output
    # printlevel mini
    print[ P_Basis ] 0
    print[ P_SCFInfo ] 1
    print[ P_SCFIterInfo ] 1
    print[ P_OrbEn ] 0
    print[ P_Cartesian ] 0
end
*xyz 0 1
 C        0.9832300000    -0.3278030000    -0.1882070000 
 N        2.3717160000     0.0327320000    -0.0109840000 
 C        3.1004600000     0.4290460000    -1.1879410000 
 C        3.0918430000    -0.3070940000     1.0982920000 
 N        4.3551710000    -0.2973000000     1.2756340000 
 C        2.2982460000    -0.6967750000     2.2542230000 
 N        1.6800920000    -1.0103040000     3.1711030000 
 H        0.4405150000     0.5036310000    -0.6440070000 
 H        0.5244860000    -0.5469710000     0.7743160000 
 H        0.8740380000    -1.2093930000    -0.8311150000 
 H        2.3992550000     0.8406550000    -1.9130100000 
 H        3.6285330000    -0.4116720000    -1.6568950000 
 H        3.8296340000     1.2064360000    -0.9458320000 
 H        4.8579920000    -0.0437780000     0.4291330000 
*
