! RI PBE def2-SVP def2-SVP/J NBO PAL2
% maxcore 2000
% output
    # printlevel mini
    print[ P_Basis ] 0
    print[ P_SCFInfo ] 1
    print[ P_SCFIterInfo ] 1
    print[ P_OrbEn ] 0
    print[ P_Cartesian ] 0
end
*xyz 0 1
 C        1.2101390000     0.1048190000    -0.0998190000 
 N        2.6009270000    -0.2728840000    -0.1376840000 
 C        3.2291560000    -0.6250950000     1.1050540000 
 C        3.3186420000     0.4921150000     2.0577190000 
 N        3.3585410000     1.3765290000     2.7905010000 
 C        3.3908080000     0.1174570000    -1.1942000000 
 N        3.0622100000     0.7129020000    -2.2622010000 
 H        0.7040340000    -0.4637520000     0.6812890000 
 H        0.7348310000    -0.1386950000    -1.0519340000 
 H        1.0690020000     1.1733950000     0.1030770000 
 H        4.2397790000    -0.9910770000     0.9076960000 
 H        2.6823760000    -1.4385770000     1.5930670000 
 H        4.4349850000    -0.1780440000    -1.0658670000 
 H        2.0783610000     0.9736960000    -2.2821080000 
*
