! RI PBE def2-SVP def2-SVP/J NBO PAL2
% maxcore 2000
% output
    # printlevel mini
    print[ P_Basis ] 0
    print[ P_SCFInfo ] 1
    print[ P_SCFIterInfo ] 1
    print[ P_OrbEn ] 0
    print[ P_Cartesian ] 0
end
*xyz 0 1
 C        1.0585630000    -0.7469680000    -0.1190840000 
 N        2.2679410000    -0.0306620000     0.2265480000 
 C        2.8000460000    -0.2103530000     1.5589430000 
 C        2.7576920000    -1.5980220000     1.9936840000 
 N        2.7349710000    -2.6859170000     2.3620640000 
 N        2.3211680000     1.1966390000    -0.3124140000 
 C        3.0160580000     2.1358680000     0.1938770000 
 H        1.2081400000    -1.8176750000     0.0183620000 
 H        0.8467430000    -0.5433370000    -1.1665140000 
 H        0.1974020000    -0.4268150000     0.4834480000 
 H        2.2695840000     0.4078320000     2.3040200000 
 H        3.8497030000     0.1019470000     1.5722140000 
 H        3.0319500000     3.0721140000    -0.3511630000 
 H        3.6012310000     2.0717490000     1.1110160000 
*
