! RI PBE def2-SVP def2-SVP/J NBO PAL2
% maxcore 2000
% output
    # printlevel mini
    print[ P_Basis ] 0
    print[ P_SCFInfo ] 1
    print[ P_SCFIterInfo ] 1
    print[ P_OrbEn ] 0
    print[ P_Cartesian ] 0
end
*xyz 0 1
 C        1.3965060000    -0.0921740000    -0.7002780000 
 N        2.7506380000    -0.2328690000    -1.1609920000 
 C        3.4722950000    -1.0949870000    -0.5877540000 
 N        4.7499260000    -1.4124660000    -0.9974900000 
 C        5.8938080000    -1.4127890000    -0.1199200000 
 C        5.8010930000    -0.4612050000    -1.2654960000 
 C        5.6123520000     1.0059650000    -1.0229300000 
 H        0.7034300000    -0.2947780000    -1.5225970000 
 H        1.2174230000     0.9405320000    -0.3860970000 
 H        1.1418620000    -0.7588840000     0.1380540000 
 H        3.1134330000    -1.7274800000     0.2383150000 
 H        6.5355850000    -2.2864560000    -0.1742090000 
 H        5.7725890000    -0.9871430000     0.8735070000 
 H        6.3762350000    -0.7081350000    -2.1551060000 
 H        5.0986590000     1.1916720000    -0.0787540000 
 H        5.0162260000     1.4583750000    -1.8168300000 
 H        6.5870280000     1.4996100000    -0.9902130000 
*
