! RI PBE def2-SVP def2-SVP/J NBO PAL2
% maxcore 2000
% output
    # printlevel mini
    print[ P_Basis ] 0
    print[ P_SCFInfo ] 1
    print[ P_SCFIterInfo ] 1
    print[ P_OrbEn ] 0
    print[ P_Cartesian ] 0
end
*xyz 0 1
 C        1.5213180000     1.4553010000    -0.7895180000 
 N        2.8265930000     1.5415990000    -0.1923520000 
 C        3.1899470000     0.5969230000     0.5589190000 
 N        4.3770100000     0.6072280000     1.2730990000 
 C        5.4584080000    -0.2896760000     0.9088910000 
 C        5.5706920000     1.1806800000     0.7062880000 
 C        6.4168640000     2.0434830000     1.5910680000 
 H        0.9085960000     2.2989910000    -0.4579790000 
 H        0.9852270000     0.5241970000    -0.5519270000 
 H        1.6089530000     1.5383690000    -1.8765230000 
 H        2.5720840000    -0.2902240000     0.7580050000 
 H        5.3236450000    -0.9104130000     0.0273530000 
 H        5.9752920000    -0.7630980000     1.7376600000 
 H        5.4609940000     1.5209230000    -0.3205920000 
 H        7.4388760000     2.1027470000     1.2083700000 
 H        6.0121420000     3.0569990000     1.6381130000 
 H        6.4487600000     1.6418710000     2.6057160000 
*
