! RI PBE def2-SVP def2-SVP/J NBO PAL2
% maxcore 2000
% output
    # printlevel mini
    print[ P_Basis ] 0
    print[ P_SCFInfo ] 1
    print[ P_SCFIterInfo ] 1
    print[ P_OrbEn ] 0
    print[ P_Cartesian ] 0
end
*xyz 0 1
 C        1.0144420000    -0.0467320000     0.1074320000 
 N        2.4435620000     0.0905420000     0.1586600000 
 C        3.1395070000    -0.8888540000    -0.2294010000 
 N        4.5127190000    -0.8968240000    -0.2354240000 
 C        5.2480340000     0.2561710000     0.2186070000 
 C        5.1918060000    -2.0110640000    -0.6763530000 
 C        6.5160190000    -2.1591030000    -0.7373410000 
 H        0.5874810000     0.7365360000    -0.5263040000 
 H        0.5909130000     0.0913880000     1.1069250000 
 H        0.6769870000    -1.0214640000    -0.2768830000 
 H        2.7067170000    -1.8277710000    -0.5992170000 
 H        4.5317030000     1.0160810000     0.5207200000 
 H        5.8816500000     0.6440460000    -0.5844710000 
 H        5.8855820000    -0.0090040000     1.0671720000 
 H        4.5377650000    -2.8175800000    -0.9934120000 
 H        7.2107090000    -1.3874280000    -0.4342860000 
 H        6.9272010000    -3.0883300000    -1.1048140000 
*
