! RI PBE def2-SVP def2-SVP/J NBO PAL2
% maxcore 2000
% output
    # printlevel mini
    print[ P_Basis ] 0
    print[ P_SCFInfo ] 1
    print[ P_SCFIterInfo ] 1
    print[ P_OrbEn ] 0
    print[ P_Cartesian ] 0
end
*xyz 0 1
 C        0.5641690000    -1.5516130000     0.2891850000 
 N        1.9571710000    -1.2797090000     0.0704570000 
 C        2.6864590000    -2.2364930000    -0.3208550000 
 N        4.0211590000    -2.0656470000    -0.5530110000 
 C        4.9415920000    -3.0083840000    -0.9802450000 
 C        4.4321710000    -4.3918820000    -1.2235390000 
 C        6.2252900000    -2.6819600000    -1.1627970000 
 H        0.2969630000    -1.3219350000     1.3254450000 
 H        0.2786110000    -2.5953540000     0.0850760000 
 H       -0.0473090000    -0.9012480000    -0.3441430000 
 H        2.3109910000    -3.2495040000    -0.4985870000 
 H        4.3575020000    -1.1289810000    -0.3864620000 
 H        3.6564790000    -4.4046010000    -1.9947780000 
 H        4.0024630000    -4.8271160000    -0.3165710000 
 H        5.2507220000    -5.0292630000    -1.5527730000 
 H        6.5905220000    -1.6770060000    -0.9850840000 
 H        6.9362440000    -3.4235830000    -1.4961270000 
*
