! RI PBE def2-SVP def2-SVP/J NBO PAL2
% maxcore 2000
% output
    # printlevel mini
    print[ P_Basis ] 0
    print[ P_SCFInfo ] 1
    print[ P_SCFIterInfo ] 1
    print[ P_OrbEn ] 0
    print[ P_Cartesian ] 0
end
*xyz 0 1
 C        0.9436260000    -1.9009170000    -0.6504570000 
 N        2.3403310000    -1.8968550000    -0.9861000000 
 C        3.0924200000    -1.1034010000    -0.3489080000 
 N        4.4439020000    -1.0498570000    -0.5133440000 
 C        5.0950610000    -1.7668980000    -1.5752550000 
 C        6.5520340000    -1.9833150000    -1.3368010000 
 C        7.2099040000    -1.7522900000    -0.2094640000 
 H        0.6455900000    -2.8904690000    -0.2891200000 
 H        0.3433700000    -1.6983080000    -1.5428400000 
 H        0.6719390000    -1.1623640000     0.1205440000 
 H        2.7201980000    -0.4077080000     0.4169970000 
 H        4.9032800000    -0.2199380000    -0.1792470000 
 H        4.9583260000    -1.2625200000    -2.5441640000 
 H        4.5826870000    -2.7283450000    -1.6821180000 
 H        7.0935480000    -2.3707070000    -2.1966160000 
 H        6.7115390000    -1.3850080000     0.6809750000 
 H        8.2732640000    -1.9446100000    -0.1338030000 
*
