! RI PBE def2-SVP def2-SVP/J NBO PAL2
% maxcore 2000
% output
    # printlevel mini
    print[ P_Basis ] 0
    print[ P_SCFInfo ] 1
    print[ P_SCFIterInfo ] 1
    print[ P_OrbEn ] 0
    print[ P_Cartesian ] 0
end
*xyz 0 1
 C        1.2823600000     0.1494920000     0.3527640000 
 N        2.7064290000     0.0804100000     0.1135410000 
 C        3.1470250000    -0.9389170000    -0.7122890000 
 N        4.2747770000    -1.5074830000    -0.8110640000 
 C        3.5380790000     0.9207110000     0.8616040000 
 C        4.9137650000     1.2072260000     0.3277930000 
 C        3.0951400000     1.5463710000     1.9585170000 
 H        0.7607930000    -0.3702290000    -0.4508110000 
 H        0.9568920000     1.1915880000     0.3746060000 
 H        0.9996160000    -0.3227860000     1.3002470000 
 H        2.3497940000    -1.2818820000    -1.3752960000 
 H        4.9427350000    -1.1727590000    -0.1237150000 
 H        4.9376500000     1.1859630000    -0.7623130000 
 H        5.6651840000     0.5025080000     0.6926090000 
 H        5.2188850000     2.1977910000     0.6647810000 
 H        2.1176350000     1.3743270000     2.3860690000 
 H        3.7349420000     2.2600790000     2.4592550000 
*
