! RI PBE def2-SVP def2-SVP/J NBO PAL2
% maxcore 2000
% output
    # printlevel mini
    print[ P_Basis ] 0
    print[ P_SCFInfo ] 1
    print[ P_SCFIterInfo ] 1
    print[ P_OrbEn ] 0
    print[ P_Cartesian ] 0
end
*xyz 0 1
 C        1.7345840000    -0.7257920000    -0.4949980000 
 N        3.1714500000    -0.5832000000    -0.3706720000 
 C        3.8306850000    -1.0175670000    -1.5889860000 
 N        3.4439650000     0.7773700000    -0.1105790000 
 C        4.5683400000     1.0433750000     0.4267500000 
 C        5.5964680000     0.0372150000     0.8360190000 
 C        4.8706350000     2.4827720000     0.6900810000 
 H        1.4954400000    -1.7809040000    -0.6423070000 
 H        1.3272570000    -0.1430250000    -1.3353850000 
 H        1.2569870000    -0.3865190000     0.4237240000 
 H        3.5447370000    -2.0510810000    -1.7934210000 
 H        4.9145330000    -0.9831240000    -1.4778100000 
 H        3.5480370000    -0.3964930000    -2.4540130000 
 H        5.1387020000    -0.9459000000     0.9511730000 
 H        6.0694900000     0.3429680000     1.7721040000 
 H        6.3935450000    -0.0362960000     0.0887270000 
 H        4.0398740000     3.1084290000     0.3673060000 
 H        5.7773910000     2.7907420000     0.1593560000 
 H        5.0578900000     2.6459380000     1.7562230000 
*
