! RI PBE def2-SVP def2-SVP/J NBO PAL2
% maxcore 2000
% output
    # printlevel mini
    print[ P_Basis ] 0
    print[ P_SCFInfo ] 1
    print[ P_SCFIterInfo ] 1
    print[ P_OrbEn ] 0
    print[ P_Cartesian ] 0
end
*xyz 0 1
 C        0.6970370000     1.2438610000     0.4812350000 
 N        1.8862390000     1.3381440000    -0.3184480000 
 C        2.9360840000     2.2398660000     0.0523600000 
 N        1.9556330000     0.5673940000    -1.3864440000 
 C        2.9874740000     0.5891280000    -2.1592620000 
 C        3.0170870000    -0.2720320000    -3.3150420000 
 C        4.0276330000    -0.3366360000    -4.1848870000 
 H        0.9232110000     0.9221640000     1.5049220000 
 H        0.0445150000     0.5067710000     0.0183170000 
 H        0.1672180000     2.2026780000     0.5316450000 
 H        2.6481090000     2.7625290000     0.9633200000 
 H        3.1233070000     2.9853090000    -0.7319830000 
 H        3.8778990000     1.7071780000     0.2398850000 
 H        3.8494490000     1.2338800000    -1.9804020000 
 H        2.1370670000    -0.8950750000    -3.4511720000 
 H        4.9160480000     0.2762220000    -4.0687090000 
 H        3.9976020000    -1.0026710000    -5.0377360000 
*
