! RI PBE def2-SVP def2-SVP/J NBO PAL2
% maxcore 2000
% output
    # printlevel mini
    print[ P_Basis ] 0
    print[ P_SCFInfo ] 1
    print[ P_SCFIterInfo ] 1
    print[ P_OrbEn ] 0
    print[ P_Cartesian ] 0
end
*xyz 0 1
 C        1.0190180000     0.0169960000     0.1315430000 
 N        2.4058010000     0.2378650000    -0.1931520000 
 C        3.0630630000    -0.7036950000    -1.0578510000 
 N        3.0783170000     0.9413380000     0.7016770000 
 C        4.3670970000     0.9461420000     0.7041780000 
 C        5.0690850000     1.7508590000     1.6337700000 
 C        5.7281220000     2.4097870000     2.3961700000 
 H        0.4305440000    -0.0678190000    -0.7844950000 
 H        0.6668710000     0.8703620000     0.7076770000 
 H        0.8712830000    -0.8937010000     0.7286670000 
 H        2.3162680000    -1.1752950000    -1.6947000000 
 H        3.5900750000    -1.4857580000    -0.4907510000 
 H        3.7909040000    -0.1984470000    -1.6996880000 
 H        4.9699930000     0.3613720000     0.0103540000 
 H        6.2934590000     2.9983030000     3.0786910000 
*
