! RI PBE def2-SVP def2-SVP/J NBO PAL2
% maxcore 2000
% output
    # printlevel mini
    print[ P_Basis ] 0
    print[ P_SCFInfo ] 1
    print[ P_SCFIterInfo ] 1
    print[ P_OrbEn ] 0
    print[ P_Cartesian ] 0
end
*xyz 0 1
 C        0.8162340000     0.0912390000     0.1260190000 
 N        2.2475420000     0.0131570000     0.0262550000 
 C        3.0576570000     0.6094430000     0.9607070000 
 N        2.6727290000     1.1626330000     2.0495160000 
 C        4.5059800000     0.5762310000     0.6945780000 
 C        5.1291740000    -0.1923070000    -0.1949120000 
 C        6.6010230000    -0.2046170000    -0.4161840000 
 H        0.3720720000    -0.4146250000    -0.7309870000 
 H        0.4442820000     1.1245270000     0.1496640000 
 H        0.4647090000    -0.4170630000     1.0283080000 
 H        2.6287960000    -0.0518040000    -0.9012460000 
 H        1.6597430000     1.1440580000     2.1449910000 
 H        5.0722730000     1.2397290000     1.3402620000 
 H        4.5523220000    -0.8911510000    -0.7988150000 
 H        7.1091150000     0.5085270000     0.2347130000 
 H        6.8445520000     0.0431520000    -1.4544790000 
 H        7.0165090000    -1.1998180000    -0.2281710000 
*
