! RI PBE def2-SVP def2-SVP/J NBO PAL2
% maxcore 2000
% output
    # printlevel mini
    print[ P_Basis ] 0
    print[ P_SCFInfo ] 1
    print[ P_SCFIterInfo ] 1
    print[ P_OrbEn ] 0
    print[ P_Cartesian ] 0
end
*xyz 0 1
 C        0.9224450000     0.6535120000    -0.8793420000 
 N        2.3454840000     0.7211100000    -0.7133700000 
 C        3.2209670000     0.1297940000    -1.5759890000 
 N        2.9134310000    -0.5434660000    -2.6156160000 
 C        4.6846900000     0.3171320000    -1.2260790000 
 C        5.3402580000    -1.0333960000    -0.9629020000 
 C        5.4006320000     1.0695840000    -2.3415260000 
 H        0.4400430000     1.1991710000    -0.0690910000 
 H        0.5605890000    -0.3808710000    -0.8545280000 
 H        0.6036220000     1.1018430000    -1.8274220000 
 H        2.7179400000     1.2242140000     0.0697620000 
 H        1.9076900000    -0.6038220000    -2.7518910000 
 H        4.7449430000     0.9167310000    -0.3088090000 
 H        5.2669490000    -1.6580490000    -1.8546120000 
 H        4.8527550000    -1.5618140000    -0.1399660000 
 H        6.3952150000    -0.9040800000    -0.7085040000 
 H        5.3290130000     0.5039110000    -3.2719020000 
 H        6.4558760000     1.2089180000    -2.0937010000 
 H        4.9565580000     2.0536970000    -2.5101330000 
*
