! RI PBE def2-SVP def2-SVP/J NBO PAL2
% maxcore 2000
% output
    # printlevel mini
    print[ P_Basis ] 0
    print[ P_SCFInfo ] 1
    print[ P_SCFIterInfo ] 1
    print[ P_OrbEn ] 0
    print[ P_Cartesian ] 0
end
*xyz 0 1
 C        2.1502640000     2.4586810000    -1.6052510000 
 N        3.2688640000     1.6451040000    -1.2195370000 
 C        3.6320560000     1.5065940000     0.0945140000 
 N        3.1214450000     2.1316630000     1.0865640000 
 C        4.7470050000     0.5528630000     0.3577270000 
 C        4.7954500000    -0.0231290000     1.7339540000 
 C        5.6575760000     0.2720450000    -0.5735730000 
 H        2.0237900000     2.4001570000    -2.6859350000 
 H        2.3270710000     3.5070690000    -1.3479690000 
 H        1.2112910000     2.1443350000    -1.1298320000 
 H        3.5119440000     0.8804380000    -1.8241240000 
 H        2.3667310000     2.7489360000     0.7967030000 
 H        3.8900960000    -0.5975860000     1.9475480000 
 H        4.8264220000     0.7809280000     2.4714070000 
 H        5.6654050000    -0.6690860000     1.8565430000 
 H        5.6520030000     0.7423220000    -1.5500390000 
 H        6.4691990000    -0.4160960000    -0.3668110000 
*
