! RI PBE def2-SVP def2-SVP/J NBO PAL2
% maxcore 2000
% output
    # printlevel mini
    print[ P_Basis ] 0
    print[ P_SCFInfo ] 1
    print[ P_SCFIterInfo ] 1
    print[ P_OrbEn ] 0
    print[ P_Cartesian ] 0
end
*xyz 0 1
 C        0.6058980000    -0.4588280000    -1.0108200000 
 N        2.0065890000    -0.3568420000    -0.7151920000 
 C        2.8535450000    -1.4221580000    -0.8157170000 
 N        2.5357950000    -2.6341500000    -1.0576700000 
 C        4.3047080000    -1.0793890000    -0.5556930000 
 C        4.7863850000     0.0957060000    -1.3429580000 
 C        5.2043920000     1.2408500000    -0.8184290000 
 H        0.1433110000     0.5204210000    -0.8919870000 
 H        0.1084670000    -1.1483790000    -0.3214670000 
 H        0.4185040000    -0.8075890000    -2.0344800000 
 H        2.4308240000     0.5553420000    -0.7297090000 
 H        1.5323460000    -2.7402410000    -1.1954200000 
 H        4.8765980000    -1.9753160000    -0.8033750000 
 H        4.4310660000    -0.8839810000     0.5144720000 
 H        4.7748970000    -0.0192380000    -2.4254660000 
 H        5.2378110000     1.3908540000     0.2568410000 
 H        5.5447740000     2.0606470000    -1.4406100000 
*
