! RI PBE def2-SVP def2-SVP/J NBO PAL2
% maxcore 2000
% output
    # printlevel mini
    print[ P_Basis ] 0
    print[ P_SCFInfo ] 1
    print[ P_SCFIterInfo ] 1
    print[ P_OrbEn ] 0
    print[ P_Cartesian ] 0
end
*xyz 0 1
 C        1.0929830000    -0.1762330000     0.1240350000 
 N        2.5115460000    -0.2105440000    -0.0924330000 
 C        3.0693940000     0.1791640000    -1.2688170000 
 N        2.4879050000     0.7193180000    -2.2661900000 
 C        4.5773630000     0.0062290000    -1.3557570000 
 C        5.1357830000    -1.0346010000    -0.5117900000 
 C        5.5788520000    -1.8934710000     0.2015530000 
 H        0.8750370000    -0.5604410000     1.1197640000 
 H        0.5453890000    -0.7822010000    -0.6086040000 
 H        0.7129970000     0.8487830000     0.0704300000 
 H        3.0748690000    -0.7970470000     0.5010470000 
 H        1.4892560000     0.8316550000    -2.1077180000 
 H        5.0351120000     0.9663900000    -1.0939590000 
 H        4.8183440000    -0.1772100000    -2.4041870000 
 H        5.9891730000    -2.6568110000     0.8197360000 
*
