! RI PBE def2-SVP def2-SVP/J NBO PAL2
% maxcore 2000
% output
    # printlevel mini
    print[ P_Basis ] 0
    print[ P_SCFInfo ] 1
    print[ P_SCFIterInfo ] 1
    print[ P_OrbEn ] 0
    print[ P_Cartesian ] 0
end
*xyz 0 1
 C        2.8586360000     1.2204990000     0.3418560000 
 N        2.3079220000    -0.0449760000    -0.0846140000 
 C        3.0241100000    -1.0644940000    -0.6409470000 
 N        2.5824100000    -2.1192370000    -1.2021500000 
 C        1.1543120000    -2.2618020000    -1.3008730000 
 C        4.4656290000    -0.9373260000    -0.5415230000 
 N        5.6067200000    -0.8233580000    -0.4598590000 
 H        2.2288720000     1.6397010000     1.1274180000 
 H        2.9322970000     1.9458840000    -0.4754970000 
 H        3.8551040000     1.0696880000     0.7560770000 
 H        1.3182010000    -0.0747540000    -0.2607040000 
 H        0.9179570000    -3.1932820000    -1.8138390000 
 H        0.6891290000    -1.4424320000    -1.8707760000 
 H        0.6739020000    -2.2919110000    -0.3117880000 
*
