! RI PBE def2-SVP def2-SVP/J NBO PAL2
% maxcore 2000
% output
    # printlevel mini
    print[ P_Basis ] 0
    print[ P_SCFInfo ] 1
    print[ P_SCFIterInfo ] 1
    print[ P_OrbEn ] 0
    print[ P_Cartesian ] 0
end
*xyz 0 1
 C        2.0330690000     1.2318340000    -0.5323300000 
 N        2.2457800000     0.2328350000    -1.2732850000 
 N        3.3245980000    -0.5599260000    -0.7994300000 
 C        3.1256780000    -1.9532350000    -1.1836270000 
 C        4.0604120000    -1.1146010000    -1.9603460000 
 C        5.4822810000    -1.2225820000    -1.8368540000 
 C        6.6754030000    -1.3284080000    -1.7566600000 
 H        1.2253700000     1.9026590000    -0.8108450000 
 H        2.6269120000     1.4347310000     0.3601790000 
 H        2.1799570000    -2.1945500000    -1.6552120000 
 H        3.5166820000    -2.6697280000    -0.4723020000 
 H        3.6915960000    -0.7765230000    -2.9237820000 
 H        7.7329440000    -1.4182070000    -1.6789040000 
*
