! RI PBE def2-SVP def2-SVP/J NBO PAL2
% maxcore 2000
% output
    # printlevel mini
    print[ P_Basis ] 0
    print[ P_SCFInfo ] 1
    print[ P_SCFIterInfo ] 1
    print[ P_OrbEn ] 0
    print[ P_Cartesian ] 0
end
*xyz 0 1
 C        2.0486570000     0.7433610000    -0.0776940000 
 N        2.2434750000    -0.1412010000     0.7997770000 
 N        3.4190380000    -0.8949150000     0.5394830000 
 C        3.2614640000    -2.2496280000     1.0538520000 
 C        4.0880740000    -1.2804000000     1.8009030000 
 C        3.6311660000    -0.7628360000     3.0601420000 
 N        3.3406150000    -0.3509050000     4.0938450000 
 H        1.1677870000     1.3693170000     0.0298250000 
 H        2.7248510000     0.8929480000    -0.9208430000 
 H        3.7480090000    -3.0208490000     0.4696960000 
 H        2.2926300000    -2.4893330000     1.4763370000 
 H        5.1679440000    -1.3171580000     1.7112080000 
*
