! RI PBE def2-SVP def2-SVP/J NBO PAL2
% maxcore 2000
% output
    # printlevel mini
    print[ P_Basis ] 0
    print[ P_SCFInfo ] 1
    print[ P_SCFIterInfo ] 1
    print[ P_OrbEn ] 0
    print[ P_Cartesian ] 0
end
*xyz 0 1
 C        1.5851970000    -1.1329580000     0.5930870000 
 N        2.8492980000    -0.4476800000     0.3849150000 
 N        3.0457470000     0.6117260000     1.2590100000 
 C        2.3323530000     1.7778990000     1.3164190000 
 C        2.8599210000     2.5368920000     2.3291960000 
 C        3.9221010000     1.7965380000     2.9045450000 
 C        4.0126050000     0.6123500000     2.2190980000 
 H        1.5108350000    -1.9343050000    -0.1442960000 
 H        0.7035560000    -0.4854760000     0.5022260000 
 H        1.5833120000    -1.5819280000     1.5871990000 
 H        2.9217870000    -0.0970080000    -0.5623770000 
 H        1.5186450000     1.9683470000     0.6346970000 
 H        2.5217900000     3.5188010000     2.6221150000 
 H        4.5532420000     2.1008240000     3.7245970000 
 H        4.6765020000    -0.2308230000     2.3151800000 
*
