! RI PBE def2-SVP def2-SVP/J NBO PAL2
% maxcore 2000
% output
    # printlevel mini
    print[ P_Basis ] 0
    print[ P_SCFInfo ] 1
    print[ P_SCFIterInfo ] 1
    print[ P_OrbEn ] 0
    print[ P_Cartesian ] 0
end
*xyz 0 1
 C        2.4920480000    -1.4561060000     0.6228410000 
 N        2.4847000000    -0.3451070000     0.0138740000 
 N        3.1432630000    -0.2236390000    -1.1649980000 
 C        3.1383250000     0.9771380000    -1.8271290000 
 C        3.8648730000     0.8324450000    -2.9722080000 
 C        4.3296890000    -0.5109120000    -3.0060570000 
 C        3.8732380000    -1.1419670000    -1.8834690000 
 H        1.9506060000    -1.4974060000     1.5608110000 
 H        2.9974420000    -2.3559810000     0.2741190000 
 H        2.6089240000     1.8125700000    -1.4004880000 
 H        4.0468130000     1.5996190000    -3.7077000000 
 H        4.9356550000    -0.9659080000    -3.7744090000 
 H        4.0119150000    -2.1559370000    -1.5513680000 
*
