! RI PBE def2-SVP def2-SVP/J NBO PAL2
% maxcore 2000
% output
    # printlevel mini
    print[ P_Basis ] 0
    print[ P_SCFInfo ] 1
    print[ P_SCFIterInfo ] 1
    print[ P_OrbEn ] 0
    print[ P_Cartesian ] 0
end
*xyz 0 1
 C        3.0221250000     0.9575470000     0.0742920000 
 N        2.4844250000    -0.1968460000     0.1972170000 
 N        3.1822820000    -1.2186010000     0.6410120000 
 C        2.5675160000    -2.5195820000     0.7769970000 
 C        3.7016030000    -3.3390140000     1.2969260000 
 C        4.8018190000    -2.6110650000     1.4367120000 
 C        4.5723490000    -1.1910980000     1.0312530000 
 H        2.3921760000     1.7557890000    -0.2964840000 
 H        4.0611800000     1.1784780000     0.3179140000 
 H        2.1889120000    -2.8927240000    -0.1845920000 
 H        1.7162240000    -2.4962830000     1.4712490000 
 H        3.6058660000    -4.3928700000     1.5219060000 
 H        5.7586210000    -2.9675640000     1.7951940000 
 H        5.2231710000    -0.8759410000     0.1990270000 
 H        4.7506200000    -0.4796360000     1.8543780000 
*
