! RI PBE def2-SVP def2-SVP/J NBO PAL2
% maxcore 2000
% output
    # printlevel mini
    print[ P_Basis ] 0
    print[ P_SCFInfo ] 1
    print[ P_SCFIterInfo ] 1
    print[ P_OrbEn ] 0
    print[ P_Cartesian ] 0
end
*xyz 0 1
 C        1.3494380000     1.1350260000     0.2352780000 
 N        2.5608920000     1.3747490000     0.5318730000 
 N        3.5295130000     1.0471190000    -0.3369430000 
 C        4.8394140000     0.8607150000     0.2114640000 
 C        5.2870470000    -0.4928740000     0.8141810000 
 C        6.6731420000    -0.2364120000     0.1933290000 
 C        6.0072560000     0.7578040000    -0.7781880000 
 H        0.5827230000     1.4583980000     0.9283870000 
 H        1.0475170000     0.6331430000    -0.6901310000 
 H        3.2686500000     0.3770790000    -1.0575610000 
 H        5.0014040000     1.6660300000     0.9304870000 
 H        4.7776560000    -1.3218590000     0.3140140000 
 H        5.2086570000    -0.6280320000     1.8936070000 
 H        7.2047490000    -1.0857860000    -0.2356450000 
 H        7.3383810000     0.2739070000     0.8927440000 
 H        5.6906300000     0.2515240000    -1.6953530000 
 H        6.5345300000     1.6734690000    -1.0485330000 
*
