! RI PBE def2-SVP def2-SVP/J NBO PAL2
% maxcore 2000
% output
    # printlevel mini
    print[ P_Basis ] 0
    print[ P_SCFInfo ] 1
    print[ P_SCFIterInfo ] 1
    print[ P_OrbEn ] 0
    print[ P_Cartesian ] 0
end
*xyz 0 1
 C        2.0950430000    -0.0408740000    -0.3912440000 
 N        2.4641110000    -0.5389140000     0.9145130000 
 N        1.7527090000     0.0439390000     1.9026980000 
 C        1.5762160000    -0.5409820000     3.0201160000 
 C        2.7904060000    -1.9212680000     1.0033170000 
 C        4.0363780000    -2.3898000000     0.3244230000 
 C        3.9834570000    -2.3230180000     1.8177420000 
 H        1.9719860000     1.0389290000    -0.3233440000 
 H        1.1531870000    -0.4771440000    -0.7537070000 
 H        2.8821960000    -0.2711070000    -1.1097450000 
 H        1.0322000000     0.0146430000     3.7753920000 
 H        1.9456780000    -1.5355420000     3.2642430000 
 H        1.9387050000    -2.6061410000     1.0104830000 
 H        4.6322690000    -1.6434410000    -0.1853830000 
 H        4.0155830000    -3.3607990000    -0.1535760000 
 H        4.5315350000    -1.5231330000     2.2988050000 
 H        3.9294400000    -3.2481290000     2.3783960000 
*
