! RI PBE def2-SVP def2-SVP/J NBO PAL2
% maxcore 2000
% output
    # printlevel mini
    print[ P_Basis ] 0
    print[ P_SCFInfo ] 1
    print[ P_SCFIterInfo ] 1
    print[ P_OrbEn ] 0
    print[ P_Cartesian ] 0
end
*xyz 0 1
 C        2.4512420000    -0.2790470000    -1.0706830000 
 N        3.2405620000    -0.4706510000     0.1212500000 
 N        3.6897790000     0.6816700000     0.6773890000 
 C        4.7380130000     0.6531630000     1.3933190000 
 C        5.2776920000     1.8582520000     2.0488820000 
 C        5.8720320000     2.9675850000     1.2087520000 
 C        4.5780880000     3.1733650000     1.9237460000 
 H        2.0444400000    -1.2436870000    -1.3795680000 
 H        3.0157380000     0.1521370000    -1.9092690000 
 H        1.6197800000     0.3875460000    -0.8396470000 
 H        3.9553230000    -1.1866810000     0.0221490000 
 H        5.2971120000    -0.2815920000     1.5364460000 
 H        5.7897510000     1.6610600000     2.9848910000 
 H        5.8348630000     2.8312860000     0.1349520000 
 H        6.7589030000     3.4669950000     1.5796560000 
 H        3.6716480000     3.1757440000     1.3328120000 
 H        4.5685240000     3.8210540000     2.7913340000 
*
