! RI PBE def2-SVP def2-SVP/J NBO PAL2
% maxcore 2000
% output
    # printlevel mini
    print[ P_Basis ] 0
    print[ P_SCFInfo ] 1
    print[ P_SCFIterInfo ] 1
    print[ P_OrbEn ] 0
    print[ P_Cartesian ] 0
end
*xyz 0 1
 C        1.6685950000     0.9116140000     0.1781490000 
 N        2.8462200000     0.4472970000     0.1514660000 
 N        3.1168140000    -0.2302440000    -1.0388440000 
 C        4.3013950000    -0.6802840000    -1.0691020000 
 C        4.7949720000    -1.4163570000    -2.2744860000 
 C        5.4233560000    -2.6817250000    -1.9281870000 
 C        5.9389420000    -3.7210230000    -1.6233690000 
 H        1.3578070000     1.4566520000     1.0643420000 
 H        0.9726480000     0.7789400000    -0.6520860000 
 H        4.9817310000    -0.5344100000    -0.2267050000 
 H        5.5294590000    -0.7856120000    -2.7926060000 
 H        3.9592130000    -1.5707050000    -2.9612750000 
 H        6.3941360000    -4.6460310000    -1.3588060000 
*
