! RI PBE def2-SVP def2-SVP/J NBO PAL2
% maxcore 2000
% output
    # printlevel mini
    print[ P_Basis ] 0
    print[ P_SCFInfo ] 1
    print[ P_SCFIterInfo ] 1
    print[ P_OrbEn ] 0
    print[ P_Cartesian ] 0
end
*xyz 0 1
 C        1.3980040000     0.2367270000    -2.4807730000 
 N        2.5616760000     0.7086170000    -2.2987090000 
 N        2.9334650000     1.0874980000    -1.0626210000 
 C        4.3608140000     1.1335650000    -0.8377690000 
 C        5.0038670000     2.2620980000    -1.6413030000 
 C        6.4392720000     2.3307050000    -1.4359490000 
 C        7.6242450000     2.3686580000    -1.2460340000 
 H        1.1050210000    -0.0191720000    -3.4915160000 
 H        0.6788260000     0.0891460000    -1.6681970000 
 H        2.3991730000     0.6745500000    -0.3039210000 
 H        4.8493830000     0.1837340000    -1.0900490000 
 H        4.5141910000     1.3110080000     0.2287750000 
 H        4.5396960000     3.2121770000    -1.3589980000 
 H        4.7858840000     2.1055160000    -2.7014130000 
 H        8.6756030000     2.4091720000    -1.0868220000 
*
