! RI PBE def2-SVP def2-SVP/J NBO PAL2
% maxcore 2000
% output
    # printlevel mini
    print[ P_Basis ] 0
    print[ P_SCFInfo ] 1
    print[ P_SCFIterInfo ] 1
    print[ P_OrbEn ] 0
    print[ P_Cartesian ] 0
end
*xyz 0 1
 C        1.9467450000    -0.7582330000     0.6759920000 
 N        3.3310750000    -0.4546270000     0.4637480000 
 N        3.7253810000    -0.1050520000    -0.7473950000 
 C        4.9687680000     0.1735120000    -0.9646200000 
 C        5.9997700000     0.1155340000     0.1169990000 
 C        5.2922750000     0.5451000000    -2.3275540000 
 C        6.4882950000     0.8774030000    -2.8182240000 
 H        1.8066120000    -1.0239300000     1.7244340000 
 H        1.6211670000    -1.6020720000     0.0593690000 
 H        1.3074060000     0.1008420000     0.4489920000 
 H        3.9835470000    -0.5096190000     1.2299660000 
 H        5.7547100000     0.8048580000     0.9340690000 
 H        6.9885300000     0.3815370000    -0.2495600000 
 H        6.0671020000    -0.8918190000     0.5454120000 
 H        4.4296090000     0.5377190000    -2.9883530000 
 H        7.3874160000     0.9042410000    -2.2132790000 
 H        6.6024910000     1.1375980000    -3.8629940000 
*
