! RI PBE def2-SVP def2-SVP/J NBO PAL2
% maxcore 2000
% output
    # printlevel mini
    print[ P_Basis ] 0
    print[ P_SCFInfo ] 1
    print[ P_SCFIterInfo ] 1
    print[ P_OrbEn ] 0
    print[ P_Cartesian ] 0
end
*xyz 0 1
 C        1.3843150000    -0.4301790000     0.2137630000 
 N        2.8207680000    -0.4621460000     0.0953750000 
 N        3.3226260000     0.1804310000    -0.9613860000 
 C        4.5766220000     0.4732270000    -0.9676750000 
 C        5.5104480000     0.1612410000     0.1649330000 
 C        5.0992380000     1.1107900000    -2.1259250000 
 C        5.6089570000     1.6544350000    -3.0713620000 
 H        1.0783760000    -1.1371750000     0.9865720000 
 H        0.9478490000    -0.7396300000    -0.7355710000 
 H        0.9952410000     0.5642130000     0.4661900000 
 H        3.3308820000    -0.3821070000     0.9677860000 
 H        5.5181730000    -0.9146030000     0.3726940000 
 H        5.2066100000     0.6738170000     1.0863240000 
 H        6.5247420000     0.4754080000    -0.0708720000 
 H        6.0375630000     2.1342700000    -3.9187460000 
*
