! RI PBE def2-SVP def2-SVP/J NBO PAL2
% maxcore 2000
% output
    # printlevel mini
    print[ P_Basis ] 0
    print[ P_SCFInfo ] 1
    print[ P_SCFIterInfo ] 1
    print[ P_OrbEn ] 0
    print[ P_Cartesian ] 0
end
*xyz 0 1
 C        2.1387580000    -1.1836310000    -0.6976160000 
 N        3.4453710000    -0.6034050000    -0.6348440000 
 N        3.5664800000     0.7064010000    -0.4994000000 
 C        4.7348480000     1.2320860000    -0.4420560000 
 C        4.8972730000     2.6547190000    -0.2950200000 
 C        6.0793130000     3.2749730000    -0.2279710000 
 C        6.2631700000     4.7436040000    -0.0761060000 
 H        2.2457330000    -2.2633910000    -0.8085670000 
 H        1.5679060000    -0.8058930000    -1.5526480000 
 H        1.5637500000    -0.9878060000     0.2137940000 
 H        4.2693730000    -1.1852200000    -0.6921460000 
 H        5.6383410000     0.6109480000    -0.5037320000 
 H        3.9752070000     3.2289540000    -0.2382800000 
 H        6.9856440000     2.6735010000    -0.2875740000 
 H        5.3036760000     5.2620790000    -0.0252810000 
 H        6.8321000000     5.1628200000    -0.9132420000 
 H        6.8273470000     4.9829510000     0.8319910000 
*
