! RI PBE def2-SVP def2-SVP/J NBO PAL2
% maxcore 2000
% output
    # printlevel mini
    print[ P_Basis ] 0
    print[ P_SCFInfo ] 1
    print[ P_SCFIterInfo ] 1
    print[ P_OrbEn ] 0
    print[ P_Cartesian ] 0
end
*xyz 0 1
 C        2.2556590000     0.9371660000     1.5647820000 
 N        3.1721440000     0.5061940000     0.5551350000 
 N        3.7178240000    -0.7023180000     0.6476870000 
 C        4.5364440000    -1.1050210000    -0.2392870000 
 C        5.1687710000    -2.4578170000    -0.1670380000 
 C        4.7798010000    -3.3053780000    -1.3762630000 
 C        6.6871510000    -2.3430830000    -0.0519030000 
 H        1.9194510000     1.9449770000     1.3168480000 
 H        2.7227740000     0.9682970000     2.5554690000 
 H        1.3742850000     0.2886460000     1.6213440000 
 H        3.4072940000     1.1083910000    -0.2201830000 
 H        4.8065520000    -0.4655830000    -1.0936350000 
 H        4.7799610000    -2.9335710000     0.7386360000 
 H        5.1149310000    -2.8348960000    -2.3062910000 
 H        3.6970330000    -3.4342330000    -1.4364320000 
 H        5.2402840000    -4.2956490000    -1.3232400000 
 H        7.1066610000    -1.8300390000    -0.9233470000 
 H        7.1502780000    -3.3320180000     0.0029750000 
 H        6.9743020000    -1.7807750000     0.8391410000 
*
