! RI PBE def2-SVP def2-SVP/J NBO PAL2
% maxcore 2000
% output
    # printlevel mini
    print[ P_Basis ] 0
    print[ P_SCFInfo ] 1
    print[ P_SCFIterInfo ] 1
    print[ P_OrbEn ] 0
    print[ P_Cartesian ] 0
end
*xyz 0 1
 C        1.0263050000     0.3563300000    -0.3267920000 
 N        2.4587560000     0.2339510000    -0.2345030000 
 N        3.0905170000     1.2529100000     0.3547260000 
 C        4.2555200000     1.0470520000     0.8474860000 
 C        5.0162170000     2.0908000000     1.4232200000 
 C        5.7169290000     2.9312360000     1.9300080000 
 C        6.5395880000     3.9595510000     2.5332350000 
 H        0.6479510000    -0.4239860000    -0.9891310000 
 H        0.7862080000     1.3273520000    -0.7596530000 
 H        0.5201890000     0.2749920000     0.6441430000 
 H        2.8029500000    -0.6943690000    -0.0047650000 
 H        4.7085370000     0.0480910000     0.8296410000 
 H        7.5062690000     4.0379910000     2.0282950000 
 H        6.7294960000     3.7450770000     3.5885210000 
 H        6.0487580000     4.9340210000     2.4717490000 
*
