! RI PBE def2-SVP def2-SVP/J NBO PAL2
% maxcore 2000
% output
    # printlevel mini
    print[ P_Basis ] 0
    print[ P_SCFInfo ] 1
    print[ P_SCFIterInfo ] 1
    print[ P_OrbEn ] 0
    print[ P_Cartesian ] 0
end
*xyz 0 1
 C        1.7736610000     0.8597820000     0.4744400000 
 N        3.0549040000     0.1977490000     0.5191250000 
 N        3.2585500000    -0.6899090000    -0.4773270000 
 C        4.4441500000    -0.9632760000    -0.8335950000 
 C        4.6940640000    -2.0177830000    -1.8688590000 
 C        5.5384610000    -1.5452760000    -2.9567980000 
 C        6.2431810000    -1.1413760000    -3.8405020000 
 H        1.6504990000     1.4453650000     1.3870600000 
 H        0.9893380000     0.1033980000     0.4401210000 
 H        1.6528760000     1.5232210000    -0.3923040000 
 H        3.8379370000     0.8226300000     0.6916230000 
 H        5.3162340000    -0.4608380000    -0.3982660000 
 H        3.7284520000    -2.3549460000    -2.2546130000 
 H        5.1760750000    -2.8890010000    -1.4060010000 
 H        6.8627080000    -0.7876400000    -4.6301140000 
*
