! RI PBE def2-SVP def2-SVP/J NBO PAL2
% maxcore 2000
% output
    # printlevel mini
    print[ P_Basis ] 0
    print[ P_SCFInfo ] 1
    print[ P_SCFIterInfo ] 1
    print[ P_OrbEn ] 0
    print[ P_Cartesian ] 0
end
*xyz 0 1
 C        1.1270040000     1.7198400000    -0.8228890000 
 N        2.3469810000     1.9876580000    -0.6040390000 
 N        2.9811340000     1.3809070000     0.4197450000 
 C        4.4187790000     1.3366230000     0.2959590000 
 C        4.9985140000     2.7464420000     0.4016920000 
 C        6.4452490000     2.7467740000     0.2757340000 
 N        7.5905620000     2.7226120000     0.1788130000 
 H        0.6253020000     2.2522300000    -1.6214880000 
 H        0.5608880000     0.9879020000    -0.2378320000 
 H        2.5610800000     0.5121700000     0.7366310000 
 H        4.7433530000     0.8794670000    -0.6474310000 
 H        4.7984840000     0.7196580000     1.1125780000 
 H        4.7217010000     3.1911810000     1.3611600000 
 H        4.5692690000     3.3718250000    -0.3847230000 
*
