! RI PBE def2-SVP def2-SVP/J NBO PAL2
% maxcore 2000
% output
    # printlevel mini
    print[ P_Basis ] 0
    print[ P_SCFInfo ] 1
    print[ P_SCFIterInfo ] 1
    print[ P_OrbEn ] 0
    print[ P_Cartesian ] 0
end
*xyz 0 1
 C        1.2142270000    -0.1547440000     0.5037740000 
 N        2.6488220000    -0.2470040000     0.4023540000 
 N        3.1382700000    -0.7549010000    -0.7123430000 
 C        4.3930960000    -0.6139440000    -0.9674420000 
 C        5.3672390000     0.1194920000    -0.0983180000 
 C        4.8687820000    -1.2287500000    -2.1623640000 
 N        5.3180360000    -1.6976290000    -3.1153450000 
 H        0.9425970000     0.0017610000     1.5484890000 
 H        0.7801210000    -1.0943960000     0.1645110000 
 H        0.7984120000     0.6608690000    -0.0991480000 
 H        3.1909840000     0.4554450000     0.8910190000 
 H        5.4105520000    -0.3306400000     0.8997540000 
 H        5.0803110000     1.1713750000     0.0209180000 
 H        6.3669400000     0.0950870000    -0.5270510000 
*
