! RI PBE def2-SVP def2-SVP/J NBO PAL2
% maxcore 2000
% output
    # printlevel mini
    print[ P_Basis ] 0
    print[ P_SCFInfo ] 1
    print[ P_SCFIterInfo ] 1
    print[ P_OrbEn ] 0
    print[ P_Cartesian ] 0
end
*xyz 0 1
 N        0.0327700000     0.0270450000    -1.3404210000 
 C        0.0197050000    -1.0718350000    -0.3479810000 
 C        1.2480570000    -0.6419650000     0.4638480000 
 C        1.2143070000     0.6814120000     0.4914180000 
 C       -0.0352260000     1.0815490000    -0.3030960000 
 C       -1.2521930000     0.6191820000     0.5254730000 
 C       -1.2183730000    -0.7069990000     0.4978150000 
 H       -0.8580470000     0.0146100000    -1.8341280000 
 H        0.0454720000    -2.0712800000    -0.7778590000 
 H        1.9448040000    -1.3174810000     0.9382570000 
 H        1.8762320000     1.3712190000     0.9942730000 
 H       -0.0608920000     2.0980410000    -0.6909540000 
 H       -1.9206930000     1.2668280000     1.0757430000 
 H       -1.8524220000    -1.4102270000     1.0199130000 
*
