! RI PBE def2-SVP def2-SVP/J NBO PAL2
% maxcore 2000
% output
    # printlevel mini
    print[ P_Basis ] 0
    print[ P_SCFInfo ] 1
    print[ P_SCFIterInfo ] 1
    print[ P_OrbEn ] 0
    print[ P_Cartesian ] 0
end
*xyz 0 1
 N        0.6930170000     0.0781440000    -0.5466700000 
 C        1.9650940000    -0.0149640000     0.0934850000 
 C        2.4007210000    -1.3069520000     0.8372080000 
 C        3.7807770000    -0.5907270000     0.8011860000 
 C        3.3675450000    -0.0951420000    -0.6101970000 
 C        3.4662770000     0.6501290000     1.6306600000 
 C        2.2764960000     1.0248930000     1.1689080000 
 H        0.5946330000    -0.6191160000    -1.2730890000 
 H        0.5601380000     0.9874790000    -0.9717620000 
 H        2.3636810000    -2.1969900000     0.2010420000 
 H        1.9498620000    -1.4961420000     1.8124010000 
 H        4.7123030000    -1.1229790000     0.9790070000 
 H        3.4115540000    -0.8787970000    -1.3731270000 
 H        3.8105110000     0.8364520000    -0.9678110000 
 H        4.0814240000     1.0875860000     2.4039390000 
 H        1.6342860000     1.8453260000     1.4583100000 
*
