! RI PBE def2-SVP def2-SVP/J NBO PAL2
% maxcore 2000
% output
    # printlevel mini
    print[ P_Basis ] 0
    print[ P_SCFInfo ] 1
    print[ P_SCFIterInfo ] 1
    print[ P_OrbEn ] 0
    print[ P_Cartesian ] 0
end
*xyz 0 1
 N        1.6054990000    -0.4254130000    -0.6382470000 
 C        2.8314290000     0.0208180000    -0.0508370000 
 C        3.6603690000    -1.0203140000     0.6316820000 
 C        4.1465930000    -0.4074480000    -0.6500100000 
 C        5.1314870000     0.7415770000    -0.5404150000 
 C        4.2634610000     1.9795100000    -0.2678700000 
 C        3.0147620000     1.4563990000     0.4526210000 
 H        0.8645110000    -0.4644810000     0.0515330000 
 H        1.3044720000     0.2002640000    -1.3761340000 
 H        3.2916730000    -2.0376020000     0.5819890000 
 H        4.1713800000    -0.7548620000     1.5517450000 
 H        4.1457550000    -1.0361330000    -1.5319830000 
 H        5.7213410000     0.8557650000    -1.4524900000 
 H        5.8419750000     0.5724940000     0.2755310000 
 H        3.9628300000     2.4172040000    -1.2250230000 
 H        4.7898830000     2.7585450000     0.2889870000 
 H        2.1302380000     2.0561780000     0.2245840000 
 H        3.1430430000     1.4809190000     1.5402340000 
*
