! RI PBE def2-SVP def2-SVP/J NBO PAL2
% maxcore 2000
% output
    # printlevel mini
    print[ P_Basis ] 0
    print[ P_SCFInfo ] 1
    print[ P_SCFIterInfo ] 1
    print[ P_OrbEn ] 0
    print[ P_Cartesian ] 0
end
*xyz 0 1
 N        1.6170050000     0.2115820000     0.9549400000 
 C        2.7275690000    -0.1295390000     0.1139090000 
 C        3.3505170000     0.8715500000    -0.8181740000 
 C        4.1190840000     0.3818040000     0.3882560000 
 C        5.0283270000    -0.7592240000     0.1263890000 
 C        4.3522730000    -1.8340870000    -0.2743310000 
 C        2.8692010000    -1.5968420000    -0.2703840000 
 H        1.8583190000     0.9388190000     1.6138880000 
 H        0.8265530000     0.5364840000     0.4121810000 
 H        2.9493640000     1.8779910000    -0.7703030000 
 H        3.6998870000     0.5539390000    -1.7947590000 
 H        4.3196240000     1.0806240000     1.1936000000 
 H        6.1060050000    -0.6935540000     0.2185600000 
 H        4.7992770000    -2.7748600000    -0.5734920000 
 H        2.3630230000    -2.2193380000     0.4760360000 
 H        2.4085720000    -1.8232600000    -1.2386070000 
*
