! RI PBE def2-SVP def2-SVP/J NBO PAL2
% maxcore 2000
% output
    # printlevel mini
    print[ P_Basis ] 0
    print[ P_SCFInfo ] 1
    print[ P_SCFIterInfo ] 1
    print[ P_OrbEn ] 0
    print[ P_Cartesian ] 0
end
*xyz 0 1
 N        1.0117980000    -0.0762620000    -0.0776250000 
 C        2.4326010000     0.0618080000    -0.1128960000 
 C        3.3939410000    -0.5491630000    -1.1784290000 
 C        4.4394250000    -0.3096660000    -0.0730840000 
 C        3.3182440000    -0.6505720000     0.9304660000 
 C        4.4736650000     1.2191860000     0.0008900000 
 C        2.9508940000     1.4985670000    -0.0273520000 
 H        0.7285170000    -1.0362210000    -0.2269910000 
 H        0.5685020000     0.4924180000    -0.7887160000 
 H        3.5166690000    -0.0262900000    -2.1316910000 
 H        3.1933950000    -1.6100630000    -1.3443060000 
 H        5.3916500000    -0.8374180000    -0.0626590000 
 H        3.3662050000    -0.2253000000     1.9363430000 
 H        3.1143440000    -1.7227730000     0.9773920000 
 H        5.0005050000     1.6614360000    -0.8478980000 
 H        4.9492510000     1.5785630000     0.9162530000 
 H        2.6428350000     2.0915210000    -0.8935490000 
 H        2.5848580000     1.9972380000     0.8726450000 
*
