! RI PBE def2-SVP def2-SVP/J NBO PAL2
% maxcore 2000
% output
    # printlevel mini
    print[ P_Basis ] 0
    print[ P_SCFInfo ] 1
    print[ P_SCFIterInfo ] 1
    print[ P_OrbEn ] 0
    print[ P_Cartesian ] 0
end
*xyz 0 1
 N        1.4970370000    -0.0288170000    -0.7357820000 
 C        2.7732960000     0.1857860000    -0.1147630000 
 C        3.5364110000    -0.9094520000     0.5942050000 
 C        4.0374280000    -0.3361930000    -0.7054980000 
 N        5.0445140000     0.6957930000    -0.6019420000 
 C        4.3289420000     1.9697170000    -0.5100210000 
 C        3.0914620000     1.6164250000     0.3142770000 
 H        1.5219010000    -0.8351180000    -1.3463050000 
 H        0.7834820000    -0.2060880000    -0.0374310000 
 H        3.1012220000    -1.9033850000     0.5687830000 
 H        4.1035130000    -0.6651760000     1.4855630000 
 H        4.0254760000    -0.9580800000    -1.5963780000 
 H        5.6949160000     0.6677400000    -1.3734960000 
 H        4.0120500000     2.3453380000    -1.4952790000 
 H        4.9543900000     2.7330080000    -0.0397180000 
 H        2.2497340000     2.2720990000     0.0906170000 
 H        3.3052270000     1.6761030000     1.3847790000 
*
