! RI PBE def2-SVP def2-SVP/J NBO PAL2
% maxcore 2000
% output
    # printlevel mini
    print[ P_Basis ] 0
    print[ P_SCFInfo ] 1
    print[ P_SCFIterInfo ] 1
    print[ P_OrbEn ] 0
    print[ P_Cartesian ] 0
end
*xyz 0 1
 N        1.5299760000    -0.3751760000    -0.6772100000 
 C        2.7629290000     0.0090070000    -0.0639350000 
 C        3.5692760000    -1.0719540000     0.5812520000 
 C        4.0759850000    -0.4054450000    -0.6646970000 
 C        5.0308140000     0.7662280000    -0.4849570000 
 N        4.2177540000     1.9456940000    -0.1634150000 
 C        3.0059840000     1.4287900000     0.4750010000 
 H        0.7849720000    -0.4377260000     0.0059640000 
 H        1.2452850000     0.2915600000    -1.3848510000 
 H        3.1935650000    -2.0834660000     0.4850950000 
 H        4.0720350000    -0.8494950000     1.5175350000 
 H        4.0890020000    -0.9832500000    -1.5805990000 
 H        5.6282830000     0.9539930000    -1.3791560000 
 H        5.7309560000     0.5766370000     0.3368150000 
 H        3.9488140000     2.3846580000    -1.0356710000 
 H        2.1546310000     2.0801760000     0.2645870000 
 H        3.1448300000     1.4154590000     1.5627340000 
*
