! RI PBE def2-SVP def2-SVP/J NBO PAL2
% maxcore 2000
% output
    # printlevel mini
    print[ P_Basis ] 0
    print[ P_SCFInfo ] 1
    print[ P_SCFIterInfo ] 1
    print[ P_OrbEn ] 0
    print[ P_Cartesian ] 0
end
*xyz 0 1
 N        1.0384380000     0.1169300000     0.1329110000 
 C        2.4685170000     0.0451630000     0.0095920000 
 C        3.0858380000    -0.9308080000    -1.0345680000 
 C        4.5882330000    -0.6960660000    -0.8482580000 
 C        4.5649430000     0.8567620000    -0.8299920000 
 C        3.0559110000     1.0523700000    -0.9999680000 
 N        2.6670510000     0.0708960000    -2.0503140000 
 H        0.6831590000    -0.6890570000     0.6327260000 
 H        0.6306850000     0.1058760000    -0.7958060000 
 H        2.9282090000     0.0345320000     1.0012930000 
 H        2.7285380000    -1.9549710000    -1.1541600000 
 H        5.1763540000    -1.1051270000    -1.6731110000 
 H        4.9700640000    -1.1276920000     0.0804090000 
 H        5.1270170000     1.3009700000    -1.6546160000 
 H        4.9446160000     1.2813370000     0.1021690000 
 H        2.6630570000     2.0661050000    -1.0811440000 
 H        3.2642610000     0.0937790000    -2.8744610000 
*
