! RI PBE def2-SVP def2-SVP/J NBO PAL2
% maxcore 2000
% output
    # printlevel mini
    print[ P_Basis ] 0
    print[ P_SCFInfo ] 1
    print[ P_SCFIterInfo ] 1
    print[ P_OrbEn ] 0
    print[ P_Cartesian ] 0
end
*xyz 0 1
 N        0.8165570000     0.0448700000    -0.0624470000 
 C        2.2291760000     0.0858510000     0.1523990000 
 C        3.2343700000    -0.8450960000    -0.4873980000 
 C        2.7632250000    -1.6689660000    -1.6697910000 
 C        2.8394280000    -0.7286490000    -2.8824340000 
 C        2.7023320000     0.6970310000    -2.3239740000 
 C        3.1719760000     0.6154460000    -0.8814190000 
 H        0.4068370000    -0.7905470000     0.3369420000 
 H        0.5768900000     0.0637940000    -1.0439580000 
 H        2.4758310000     0.3788940000     1.1689880000 
 H        4.0445900000    -1.2215080000     0.1263840000 
 H        1.7372280000    -2.0231680000    -1.5139210000 
 H        3.3825530000    -2.5573810000    -1.8058090000 
 H        2.0960110000    -0.9597200000    -3.6502270000 
 H        3.8232130000    -0.8314950000    -3.3497630000 
 H        1.6719210000     1.0636990000    -2.3977560000 
 H        3.3096200000     1.4092240000    -2.8859400000 
 H        3.9330320000     1.3132110000    -0.5531970000 
*
