! RI PBE def2-SVP def2-SVP/J NBO PAL2
% maxcore 2000
% output
    # printlevel mini
    print[ P_Basis ] 0
    print[ P_SCFInfo ] 1
    print[ P_SCFIterInfo ] 1
    print[ P_OrbEn ] 0
    print[ P_Cartesian ] 0
end
*xyz 0 1
 N        1.1142770000     0.1113560000    -0.5894010000 
 C        2.2754240000     0.0729680000     0.2392800000 
 C        3.5032290000     0.8249590000    -0.1778560000 
 C        3.6081440000     1.2787140000    -1.6238660000 
 C        3.6511630000    -0.0010850000    -2.4079710000 
 C        3.6187420000    -1.0690850000    -1.6171920000 
 C        3.5089240000    -0.6917810000    -0.1890090000 
 H        0.5372710000     0.9114410000    -0.3641710000 
 H        0.5514280000    -0.7221700000    -0.4808300000 
 H        2.1261450000     0.0531110000     1.3200620000 
 H        4.0379530000     1.3776290000     0.5845080000 
 H        4.5071220000     1.8841030000    -1.7849200000 
 H        2.7524750000     1.8939720000    -1.9254120000 
 H        3.6629490000    -0.0261100000    -3.4913630000 
 H        3.6295190000    -2.0982670000    -1.9559950000 
 H        4.0204240000    -1.2744640000     0.5685350000 
*
