! RI PBE def2-SVP def2-SVP/J NBO PAL2
% maxcore 2000
% output
    # printlevel mini
    print[ P_Basis ] 0
    print[ P_SCFInfo ] 1
    print[ P_SCFIterInfo ] 1
    print[ P_OrbEn ] 0
    print[ P_Cartesian ] 0
end
*xyz 0 1
 N        1.0855580000     0.0446930000    -0.0570390000 
 C        2.5283140000     0.0665370000    -0.0865120000 
 C        3.1195520000     1.1181930000    -1.0647660000 
 C        2.7577930000     0.1354230000    -2.2021520000 
 C        3.1556400000    -0.8927610000    -1.1225200000 
 N        4.5829380000    -0.6524690000    -0.8740000000 
 C        4.6070700000     0.8365550000    -0.8811260000 
 H        0.7288930000     0.8509580000     0.4407050000 
 H        0.7529210000    -0.7767640000     0.4326000000 
 H        3.0104760000     0.0264370000     0.9002600000 
 H        2.7949750000     2.1590350000    -1.0567080000 
 H        3.3600450000     0.1649010000    -3.1141150000 
 H        1.6937480000     0.1342820000    -2.4231730000 
 H        2.8902210000    -1.9490390000    -1.1703530000 
 H        5.1305600000    -1.0133180000    -1.6453820000 
 H        5.2118560000     1.2442660000    -1.6964040000 
 H        4.9977510000     1.2244810000     0.0642750000 
*
