! RI PBE def2-SVP def2-SVP/J NBO PAL2
% maxcore 2000
% output
    # printlevel mini
    print[ P_Basis ] 0
    print[ P_SCFInfo ] 1
    print[ P_SCFIterInfo ] 1
    print[ P_OrbEn ] 0
    print[ P_Cartesian ] 0
end
*xyz 0 1
 N        0.9848710000    -0.1332150000    -0.3948590000 
 C        2.3420850000     0.1455270000    -0.0834660000 
 C        3.5957660000    -0.6195230000    -0.6787770000 
 N        4.3283250000     0.6311760000    -0.3447560000 
 C        3.0854920000     1.2878980000    -0.8377100000 
 C        2.9766900000     0.7982130000    -2.2858880000 
 C        3.3245950000    -0.4851910000    -2.1760260000 
 H        0.6162580000    -0.8891390000     0.1652230000 
 H        0.8675210000    -0.3587240000    -1.3757740000 
 H        2.4612540000     0.2636250000     0.9944840000 
 H        3.9713290000    -1.5621230000    -0.2811120000 
 H        5.1062520000     0.7856900000    -0.9833770000 
 H        2.9266520000     2.3422650000    -0.6152960000 
 H        2.6604240000     1.3650780000    -3.1499860000 
 H        3.3671970000    -1.2610660000    -2.9274690000 
*
