! RI PBE def2-SVP def2-SVP/J NBO PAL2
% maxcore 2000
% output
    # printlevel mini
    print[ P_Basis ] 0
    print[ P_SCFInfo ] 1
    print[ P_SCFIterInfo ] 1
    print[ P_OrbEn ] 0
    print[ P_Cartesian ] 0
end
*xyz 0 1
 N        0.8527080000     0.3694370000    -0.2152080000 
 C        2.2722210000     0.2890990000    -0.0221940000 
 C        3.1413710000    -0.7650710000    -0.6554730000 
 C        3.1827520000     0.6626290000    -1.1392460000 
 C        4.3943470000     1.5138310000    -0.9681210000 
 C        4.2783100000     2.9208230000    -0.4635330000 
 C        4.9457830000     1.8747200000     0.3767660000 
 H        0.3812570000    -0.3894970000     0.2626190000 
 H        0.6177650000     0.2978160000    -1.1970020000 
 H        2.5698330000     0.6049730000     0.9727170000 
 H        2.6607120000    -1.5029690000    -1.2877020000 
 H        3.9960630000    -1.1269370000    -0.0949220000 
 H        2.6702000000     0.8340070000    -2.0841300000 
 H        5.1439840000     1.3558790000    -1.7387140000 
 H        3.2931610000     3.2498720000    -0.1548330000 
 H        4.8918510000     3.6893560000    -0.9171150000 
 H        4.4250790000     1.5337570000     1.2631990000 
 H        6.0226040000     1.9139660000     0.4848910000 
*
