! RI PBE def2-SVP def2-SVP/J NBO PAL2
% maxcore 2000
% output
    # printlevel mini
    print[ P_Basis ] 0
    print[ P_SCFInfo ] 1
    print[ P_SCFIterInfo ] 1
    print[ P_OrbEn ] 0
    print[ P_Cartesian ] 0
end
*xyz 0 1
 N        1.1305430000    -0.2387400000     0.2498110000 
 C        2.5322730000    -0.2658650000    -0.0504110000 
 C        3.0818580000    -0.5348030000    -1.4251150000 
 C        3.1408400000     0.8504280000    -0.8304930000 
 C        4.4439510000     1.4389650000    -0.4283270000 
 C        4.9141100000     2.6979780000    -1.0366850000 
 N        4.4885790000     2.6647460000     0.3614130000 
 H        0.7452190000    -1.1759340000     0.2497690000 
 H        0.6225090000     0.2924850000    -0.4462540000 
 H        3.1304210000    -0.6332840000     0.7782740000 
 H        2.3718040000    -0.7064750000    -2.2256890000 
 H        4.0126640000    -1.0834650000    -1.5179790000 
 H        2.4352690000     1.5698390000    -1.2432960000 
 H        5.1926460000     0.7086330000    -0.1281420000 
 H        4.2643590000     3.1687020000    -1.7689930000 
 H        5.9733970000     2.8737440000    -1.1907250000 
 H        3.5530370000     3.0467660000     0.4566620000 
*
