! RI PBE def2-SVP def2-SVP/J NBO PAL2
% maxcore 2000
% output
    # printlevel mini
    print[ P_Basis ] 0
    print[ P_SCFInfo ] 1
    print[ P_SCFIterInfo ] 1
    print[ P_OrbEn ] 0
    print[ P_Cartesian ] 0
end
*xyz 0 1
 N        0.8351760000     0.3537680000    -0.0615580000 
 C        2.2545200000     0.1848160000     0.0828860000 
 C        2.9594210000    -0.7264350000    -0.8735410000 
 C        3.2085020000     0.7535000000    -0.9308010000 
 C        2.7155690000     0.1524770000     1.5090420000 
 C        2.0094890000     0.9177770000     2.5509810000 
 N        1.9140120000    -0.5411670000     2.5041770000 
 H        0.5783640000     1.3149430000    -0.2398230000 
 H        0.4530580000    -0.2247780000    -0.7942730000 
 H        2.3766580000    -1.1708320000    -1.6724720000 
 H        3.7409330000    -1.3661270000    -0.4819940000 
 H        2.7811410000     1.3024440000    -1.7613670000 
 H        4.1654260000     1.1262400000    -0.5845140000 
 H        3.7871990000     0.0041490000     1.6210330000 
 H        1.1356880000     1.4870060000     2.2503100000 
 H        2.5585860000     1.3209720000     3.3951020000 
 H        1.0262780000    -0.7749530000     2.0632910000 
*
