! RI PBE def2-SVP def2-SVP/J NBO PAL2
% maxcore 2000
% output
    # printlevel mini
    print[ P_Basis ] 0
    print[ P_SCFInfo ] 1
    print[ P_SCFIterInfo ] 1
    print[ P_OrbEn ] 0
    print[ P_Cartesian ] 0
end
*xyz 0 1
 N        0.8984640000     0.1188310000    -0.0507450000 
 C        2.3280970000     0.0757760000     0.0188000000 
 C        3.1718550000    -0.8632890000    -0.8083850000 
 C        3.1433920000     0.6102880000    -1.1046620000 
 C        4.3705860000     1.4518900000    -0.8425910000 
 C        4.0743740000     2.8677280000    -0.6845820000 
 C        3.8167350000     4.0338420000    -0.5634090000 
 H        0.4887580000    -0.7378190000     0.3006870000 
 H        0.5807030000     0.2437230000    -1.0026980000 
 H        2.7086490000     0.2935200000     1.0130200000 
 H        2.6582060000    -1.5250990000    -1.4957980000 
 H        4.0725300000    -1.2770390000    -0.3675770000 
 H        2.5847060000     0.9077370000    -1.9876140000 
 H        5.0865250000     1.3256600000    -1.6630400000 
 H        4.8745820000     1.0875870000     0.0594770000 
 H        3.5867470000     5.0666560000    -0.4506820000 
*
