! RI PBE def2-SVP def2-SVP/J NBO PAL2
% maxcore 2000
% output
    # printlevel mini
    print[ P_Basis ] 0
    print[ P_SCFInfo ] 1
    print[ P_SCFIterInfo ] 1
    print[ P_OrbEn ] 0
    print[ P_Cartesian ] 0
end
*xyz 0 1
 N        1.1185310000    -0.3556180000     0.3474760000 
 C        2.5304280000    -0.3641460000     0.0969790000 
 C        3.1366190000    -0.5446980000    -1.2740600000 
 C        3.1657690000     0.7911090000    -0.5882040000 
 N        4.4211350000     1.2636490000    -0.0991950000 
 C        4.9959260000     2.3939020000    -0.8004730000 
 C        4.4088530000     2.5593180000     0.5485070000 
 H        0.7332740000    -1.2880970000     0.2545750000 
 H        0.6365030000     0.2322190000    -0.3208680000 
 H        3.1109880000    -0.7726160000     0.9170940000 
 H        2.4621610000    -0.6636370000    -2.1141810000 
 H        4.0781130000    -1.0747590000    -1.3505670000 
 H        2.4828340000     1.5531900000    -0.9783180000 
 H        4.4379110000     2.8042970000    -1.6385040000 
 H        6.0723080000     2.3719850000    -0.9317590000 
 H        3.4569900000     3.0798390000     0.6167640000 
 H        5.0497380000     2.6591610000     1.4176460000 
*
