! RI PBE def2-SVP def2-SVP/J NBO PAL2
% maxcore 2000
% output
    # printlevel mini
    print[ P_Basis ] 0
    print[ P_SCFInfo ] 1
    print[ P_SCFIterInfo ] 1
    print[ P_OrbEn ] 0
    print[ P_Cartesian ] 0
end
*xyz 0 1
 N        1.0399080000     0.1058770000     0.0976590000 
 C        2.4934820000     0.0975610000     0.0854980000 
 C        3.0739010000    -1.0420340000     0.9649030000 
 C        3.8650570000    -0.2045910000     1.9705560000 
 C        4.5464220000     0.8290970000     1.0459120000 
 C        3.0918610000     1.2958120000     0.8314010000 
 C        2.8588510000     0.9164940000     2.3077610000 
 H        0.6788660000    -0.7668940000    -0.2683260000 
 H        0.6843000000     0.8436020000    -0.4992610000 
 H        2.9109220000     0.0504730000    -0.9315450000 
 H        3.7069770000    -1.7305000000     0.4002030000 
 H        2.2731700000    -1.6140370000     1.4404040000 
 H        4.4163110000    -0.7388120000     2.7445750000 
 H        5.1046630000     0.4593420000     0.1805490000 
 H        5.1402710000     1.5598030000     1.5971530000 
 H        2.8533620000     2.2859590000     0.4398590000 
 H        1.8471510000     0.6339030000     2.6017900000 
 H        3.2761140000     1.6558540000     2.9934080000 
*
