! RI PBE def2-SVP def2-SVP/J NBO PAL2
% maxcore 2000
% output
    # printlevel mini
    print[ P_Basis ] 0
    print[ P_SCFInfo ] 1
    print[ P_SCFIterInfo ] 1
    print[ P_OrbEn ] 0
    print[ P_Cartesian ] 0
end
*xyz 0 1
 N        1.1732740000     0.1891580000     0.5611780000 
 C        2.5689580000     0.0148740000     0.1762830000 
 C        2.8926160000    -1.3816260000    -0.3948490000 
 C        2.5469670000    -1.2892730000    -1.8722840000 
 C        3.5953170000    -0.7364110000    -2.7868240000 
 C        2.5408980000     0.1761070000    -2.2428400000 
 C        2.8797840000     0.9658670000    -0.9876720000 
 H        0.9110810000    -0.5022120000     1.2546130000 
 H        0.5779540000     0.0279730000    -0.2453370000 
 H        3.1797620000     0.2398250000     1.0560760000 
 H        2.3164050000    -2.1566600000     0.1162240000 
 H        3.9517450000    -1.6251670000    -0.2535280000 
 H        1.8157200000    -1.9703980000    -2.2904660000 
 H        3.5426730000    -1.0024670000    -3.8360890000 
 H        4.6044000000    -0.6341490000    -2.3989600000 
 H        1.8057830000     0.5717680000    -2.9334460000 
 H        2.2888600000     1.8787000000    -0.8968680000 
 H        3.9347030000     1.2560910000    -0.9794030000 
*
