! RI PBE def2-SVP def2-SVP/J NBO PAL2
% maxcore 2000
% output
    # printlevel mini
    print[ P_Basis ] 0
    print[ P_SCFInfo ] 1
    print[ P_SCFIterInfo ] 1
    print[ P_OrbEn ] 0
    print[ P_Cartesian ] 0
end
*xyz 0 1
 N        1.6068480000     0.1656010000     1.0617250000 
 C        2.3884160000    -0.0186220000     0.0775120000 
 C        2.9688620000    -1.3084820000    -0.4813580000 
 C        4.1173920000    -0.8590490000    -1.3515800000 
 C        5.1755280000     0.0115370000    -0.7299740000 
 C        4.0172950000     0.6315780000    -1.4574240000 
 N        2.8844580000     1.0154410000    -0.6793750000 
 H        1.3343840000    -0.7226300000     1.4708720000 
 H        2.2066310000    -1.8217870000    -1.0752600000 
 H        3.2621930000    -1.9768560000     0.3310510000 
 H        4.3854750000    -1.4508430000    -2.2167450000 
 H        6.1453300000     0.0254700000    -1.2126100000 
 H        5.1972420000     0.1096470000     0.3500840000 
 H        4.1660910000     1.1547540000    -2.3937840000 
 H        2.8181440000     1.9403510000    -0.2843230000 
*
