! RI PBE def2-SVP def2-SVP/J NBO PAL2
% maxcore 2000
% output
    # printlevel mini
    print[ P_Basis ] 0
    print[ P_SCFInfo ] 1
    print[ P_SCFIterInfo ] 1
    print[ P_OrbEn ] 0
    print[ P_Cartesian ] 0
end
*xyz 0 1
 N        1.1301820000     0.1615900000     0.3772170000 
 C        2.5231730000     0.0201140000    -0.0184350000 
 C        2.9200660000    -1.3891440000    -0.5037020000 
 C        2.5603220000    -1.3638010000    -1.9760980000 
 C        3.5285850000    -0.7760030000    -2.9181590000 
 N        2.4280500000     0.0357850000    -2.4193370000 
 C        2.7809140000     0.8742100000    -1.2597060000 
 H        0.8965150000    -0.4958590000     1.1115240000 
 H        0.5226370000    -0.0406920000    -0.4094820000 
 H        3.1426970000     0.3429030000     0.8236400000 
 H        2.3808380000    -2.1659260000     0.0416340000 
 H        3.9898410000    -1.5671750000    -0.3553500000 
 H        1.8041980000    -2.0496110000    -2.3449340000 
 H        3.4862090000    -1.0144340000    -3.9763110000 
 H        4.5263380000    -0.5649240000    -2.5382020000 
 H        2.1555800000     1.7683710000    -1.2509670000 
 H        3.8279550000     1.1914970000    -1.3078410000 
*
