! RI PBE def2-SVP def2-SVP/J NBO PAL2
% maxcore 2000
% output
    # printlevel mini
    print[ P_Basis ] 0
    print[ P_SCFInfo ] 1
    print[ P_SCFIterInfo ] 1
    print[ P_OrbEn ] 0
    print[ P_Cartesian ] 0
end
*xyz 0 1
 N        1.1483860000     0.0847620000     0.5455860000 
 C        2.5329240000    -0.0935340000     0.1220800000 
 C        2.8414010000    -1.4980030000    -0.4510900000 
 C        2.5866720000    -1.3758090000    -1.9384120000 
 N        3.7152560000    -0.7836930000    -2.6614440000 
 C        2.5766530000     0.0627690000    -2.2956320000 
 C        2.8197450000     0.8738690000    -1.0400000000 
 H        0.9039330000    -0.6037270000     1.2483430000 
 H        0.5256940000    -0.0726940000    -0.2405900000 
 H        3.1642180000     0.1255660000     0.9874620000 
 H        2.2095800000    -2.2555630000     0.0190200000 
 H        3.8850010000    -1.7779470000    -0.2809190000 
 H        1.9618050000    -2.0957130000    -2.4554780000 
 H        3.6590820000    -1.0286540000    -3.6451160000 
 H        1.9452610000     0.4495740000    -3.0881080000 
 H        2.1675960000     1.7461360000    -0.9684110000 
 H        3.8559030000     1.2189530000    -1.0216010000 
*
