! RI PBE def2-SVP def2-SVP/J NBO PAL2
% maxcore 2000
% output
    # printlevel mini
    print[ P_Basis ] 0
    print[ P_SCFInfo ] 1
    print[ P_SCFIterInfo ] 1
    print[ P_OrbEn ] 0
    print[ P_Cartesian ] 0
end
*xyz 0 1
 N        1.0098710000     0.3674030000     0.0272530000 
 C        2.4263410000     0.1123680000     0.0504000000 
 C        3.2237060000     0.9483990000     1.0889850000 
 C        4.0833620000    -0.2886430000     1.4002720000 
 C        2.9895830000    -1.1619950000     0.7639710000 
 C        3.0193480000     0.2476700000    -1.3164890000 
 C        2.3936830000     0.6933110000    -2.3971460000 
 H        0.6139070000     0.2480560000     0.9509450000 
 H        0.5382310000    -0.2786050000    -0.5955710000 
 H        2.5755340000     1.2079750000     1.9302450000 
 H        3.7120990000     1.8548560000     0.7297490000 
 H        4.3317420000    -0.4763480000     2.4450530000 
 H        5.0086720000    -0.3006850000     0.8217620000 
 H        2.2735250000    -1.5136510000     1.5110830000 
 H        3.2911140000    -2.0047490000     0.1384220000 
 H        4.0610620000    -0.0565520000    -1.3962070000 
 H        1.3636090000     1.0283870000    -2.3577310000 
 H        2.9037120000     0.7546020000    -3.3513860000 
*
