! RI PBE def2-SVP def2-SVP/J NBO PAL2
% maxcore 2000
% output
    # printlevel mini
    print[ P_Basis ] 0
    print[ P_SCFInfo ] 1
    print[ P_SCFIterInfo ] 1
    print[ P_OrbEn ] 0
    print[ P_Cartesian ] 0
end
*xyz 0 1
 N        0.7886260000    -0.2913620000     0.1539830000 
 C        2.2092600000    -0.0741870000     0.0857860000 
 C        2.9110800000     1.1225670000     0.7735020000 
 C        4.0690710000     0.1714310000     1.1779400000 
 C        3.0980240000    -1.0113210000     0.9154110000 
 C        5.2328580000     0.2117120000     0.2536690000 
 C        6.4972310000     0.3582610000     0.6271020000 
 H        0.2845230000     0.3672070000    -0.4266150000 
 H        0.4525350000    -0.1786340000     1.1033530000 
 H        2.5012860000    -0.1185840000    -0.9675010000 
 H        2.3490640000     1.4449340000     1.6546300000 
 H        3.1610660000     1.9991340000     0.1718250000 
 H        4.4182600000     0.2702430000     2.2077190000 
 H        2.5893680000    -1.3049520000     1.8378360000 
 H        3.4959230000    -1.9063740000     0.4346660000 
 H        5.0091780000     0.1110130000    -0.8084060000 
 H        6.7685640000     0.4614200000     1.6734840000 
 H        7.3048620000     0.3800910000    -0.0952940000 
*
