! RI PBE def2-SVP def2-SVP/J NBO PAL2
% maxcore 2000
% output
    # printlevel mini
    print[ P_Basis ] 0
    print[ P_SCFInfo ] 1
    print[ P_SCFIterInfo ] 1
    print[ P_OrbEn ] 0
    print[ P_Cartesian ] 0
end
*xyz 0 1
 N        1.0254570000     0.0397510000    -0.3094010000 
 C        2.4179740000     0.0027180000     0.0445670000 
 C        3.0725180000     0.9920760000     1.0383950000 
 C        3.9238590000    -0.1778470000     1.5644940000 
 C        2.8833180000    -1.1452870000     0.9716450000 
 C        3.2669690000    -2.4435560000     0.3644950000 
 C        4.4619870000    -3.0142100000     0.4437100000 
 H        0.8298660000     0.7749620000    -0.9768420000 
 H        0.4492060000     0.2074030000     0.5069100000 
 H        3.0057110000    -0.0313220000    -0.8781990000 
 H        2.3430790000     1.3205730000     1.7849220000 
 H        3.5845320000     1.8678160000     0.6354400000 
 H        4.1153760000    -0.2319270000     2.6362330000 
 H        4.8755230000    -0.2476350000     1.0327860000 
 H        2.0828860000    -1.3089070000     1.7066730000 
 H        2.4772920000    -2.9402610000    -0.1971260000 
 H        5.2771390000    -2.5587270000     0.9967340000 
 H        4.6675180000    -3.9630200000    -0.0381480000 
*
