! RI PBE def2-SVP def2-SVP/J NBO PAL2
% maxcore 2000
% output
    # printlevel mini
    print[ P_Basis ] 0
    print[ P_SCFInfo ] 1
    print[ P_SCFIterInfo ] 1
    print[ P_OrbEn ] 0
    print[ P_Cartesian ] 0
end
*xyz 0 1
 N        0.9283210000    -0.0727370000    -0.1106190000 
 C        2.3526710000     0.0403610000     0.0044090000 
 C        3.0543330000     1.0881870000     0.9019960000 
 C        4.1074980000     0.0216850000     1.2434520000 
 C        3.0882960000    -1.0613320000     0.8109950000 
 C        3.5480360000    -2.2508010000     0.1347530000 
 C        3.9486470000    -3.2226100000    -0.4477370000 
 H        0.5485170000     0.6086700000    -0.7543170000 
 H        0.4735880000     0.0586660000     0.7845980000 
 H        2.7793600000     0.0724680000    -1.0015790000 
 H        2.4313010000     1.3243510000     1.7699830000 
 H        3.3883260000     2.0197560000     0.4429490000 
 H        4.4804650000    -0.0306070000     2.2657110000 
 H        4.9535520000     0.0487840000     0.5555110000 
 H        2.4639550000    -1.3383580000     1.6681370000 
 H        4.2959240000    -4.0870940000    -0.9617420000 
*
