! RI PBE def2-SVP def2-SVP/J NBO PAL2
% maxcore 2000
% output
    # printlevel mini
    print[ P_Basis ] 0
    print[ P_SCFInfo ] 1
    print[ P_SCFIterInfo ] 1
    print[ P_OrbEn ] 0
    print[ P_Cartesian ] 0
end
*xyz 0 1
 N        0.9901030000     0.2212420000    -0.0602380000 
 C        2.4408500000     0.1063930000     0.0668530000 
 C        3.1405570000     1.3745560000     0.4999650000 
 C        3.6778290000     1.2622820000     1.7145610000 
 C        3.5428890000    -0.1133510000     2.2470600000 
 C        4.2425250000    -1.1664820000     1.4254790000 
 C        2.8013350000    -0.8739440000     1.1709310000 
 H        0.7518650000     0.8048190000    -0.8535640000 
 H        0.6182520000     0.6845180000     0.7622810000 
 H        2.8166880000    -0.2457920000    -0.9009130000 
 H        3.1744370000     2.2617570000    -0.1228030000 
 H        4.1940860000     2.0527170000     2.2475190000 
 H        3.3848580000    -0.2887230000     3.3042830000 
 H        4.4732040000    -2.1097140000     1.9072880000 
 H        4.9807920000    -0.8235440000     0.7089470000 
 H        2.0657190000    -1.6285360000     1.4191710000 
*
