! RI PBE def2-SVP def2-SVP/J NBO PAL2
% maxcore 2000
% output
    # printlevel mini
    print[ P_Basis ] 0
    print[ P_SCFInfo ] 1
    print[ P_SCFIterInfo ] 1
    print[ P_OrbEn ] 0
    print[ P_Cartesian ] 0
end
*xyz 0 1
 N        1.1701500000    -0.3045810000     0.2879200000 
 C        2.3745140000     0.0814360000     0.2545920000 
 C        2.9821370000     1.3240390000    -0.2529700000 
 C        4.3105270000     1.2362640000    -0.1610270000 
 C        4.6758950000    -0.0654320000     0.4355400000 
 C        4.2829920000    -1.2829820000    -0.3201610000 
 N        3.4286200000    -0.7563710000     0.7407510000 
 H        0.5636910000     0.4077850000    -0.1128430000 
 H        2.4118580000     2.1334420000    -0.6895390000 
 H        5.0311650000     1.9864650000    -0.4605010000 
 H        5.4670030000    -0.1234220000     1.1760840000 
 H        4.7557400000    -2.2330150000    -0.0958360000 
 H        3.9534190000    -1.1475270000    -1.3459290000 
*
