! RI PBE def2-SVP def2-SVP/J NBO PAL2
% maxcore 2000
% output
    # printlevel mini
    print[ P_Basis ] 0
    print[ P_SCFInfo ] 1
    print[ P_SCFIterInfo ] 1
    print[ P_OrbEn ] 0
    print[ P_Cartesian ] 0
end
*xyz 0 1
 N        1.4139400000     0.5747380000     0.7073450000 
 C        2.4583950000    -0.0149800000    -0.1087830000 
 C        2.3004890000    -1.4956270000    -0.5119900000 
 C        3.1082650000    -1.6527030000    -1.8034190000 
 C        3.0429850000    -0.2866340000    -2.4500140000 
 N        1.7416620000     0.3639880000    -2.5289520000 
 C        2.6413620000     0.7006870000    -1.4280560000 
 H        1.2980040000     0.0613690000     1.5725020000 
 H        0.5246190000     0.5471540000     0.2214960000 
 H        3.3988260000     0.0996550000     0.4454710000 
 H        1.2407260000    -1.7126750000    -0.6821910000 
 H        2.6271710000    -2.1743210000     0.2782090000 
 H        2.7319980000    -2.4513690000    -2.4498920000 
 H        4.1540350000    -1.8876680000    -1.5798420000 
 H        3.7274600000    -0.0451360000    -3.2561630000 
 H        0.9999890000    -0.2633770000    -2.2341020000 
 H        2.9948620000     1.7257060000    -1.4172090000 
*
