! RI PBE def2-SVP def2-SVP/J NBO PAL2
% maxcore 2000
% output
    # printlevel mini
    print[ P_Basis ] 0
    print[ P_SCFInfo ] 1
    print[ P_SCFIterInfo ] 1
    print[ P_OrbEn ] 0
    print[ P_Cartesian ] 0
end
*xyz 0 1
 N        1.0131140000     0.0454340000    -0.1306210000 
 C        2.4642580000    -0.0407530000    -0.1100720000 
 C        3.1091880000    -1.2619860000    -0.7211240000 
 C        4.0991550000    -0.9508350000    -1.5498750000 
 C        4.3043140000     0.5323910000    -1.6485080000 
 C        3.1180670000     1.0857980000    -0.8950410000 
 C        2.6473800000     2.3214850000    -0.9646470000 
 H        0.6028000000    -0.6856150000     0.4374060000 
 H        0.6740360000    -0.0752030000    -1.0783990000 
 H        2.7618080000     0.0298340000     0.9469590000 
 H        2.7951080000    -2.2687620000    -0.4674000000 
 H        4.7181920000    -1.6649710000    -2.0808120000 
 H        4.3474720000     0.8936310000    -2.6809000000 
 H        5.2528800000     0.8269850000    -1.1795680000 
 H        3.1287360000     3.0784750000    -1.5746380000 
 H        1.7556940000     2.6029820000    -0.4165690000 
*
