! RI PBE def2-SVP def2-SVP/J NBO PAL2
% maxcore 2000
% output
    # printlevel mini
    print[ P_Basis ] 0
    print[ P_SCFInfo ] 1
    print[ P_SCFIterInfo ] 1
    print[ P_OrbEn ] 0
    print[ P_Cartesian ] 0
end
*xyz 0 1
 N        0.9381840000    -0.1089300000    -0.1156850000 
 C        2.3697150000    -0.0340110000     0.0681640000 
 C        2.9499140000     1.0812200000     0.9496390000 
 C        4.3720730000     0.6026440000     1.2175600000 
 C        4.2126680000    -0.9085220000     1.4370130000 
 C        2.9558170000    -1.2847600000     0.6866120000 
 C        2.4020250000    -2.4871730000     0.6205670000 
 H        0.5841610000     0.7368930000    -0.5441040000 
 H        0.4753220000    -0.2199350000     0.7793590000 
 H        2.8157690000     0.0786180000    -0.9317300000 
 H        2.3796500000     1.1271810000     1.8856200000 
 H        2.8984990000     2.0656940000     0.4781480000 
 H        4.8482460000     1.1062710000     2.0604580000 
 H        4.9938060000     0.7913530000     0.3366040000 
 H        4.0833290000    -1.1282980000     2.5016600000 
 H        5.0822180000    -1.4792890000     1.1026830000 
 H        2.8529800000    -3.3477390000     1.1034900000 
 H        1.4784250000    -2.6377070000     0.0732430000 
*
