! RI PBE def2-SVP def2-SVP/J NBO PAL2
% maxcore 2000
% output
    # printlevel mini
    print[ P_Basis ] 0
    print[ P_SCFInfo ] 1
    print[ P_SCFIterInfo ] 1
    print[ P_OrbEn ] 0
    print[ P_Cartesian ] 0
end
*xyz 0 1
 N        1.0109370000     0.1903390000     0.1470190000 
 C        2.4598830000     0.0905960000     0.0004750000 
 C        2.9712220000    -1.3035630000    -0.3856320000 
 C        2.5995650000    -1.6819540000    -1.8131450000 
 C        3.0939900000    -0.6383920000    -2.8071690000 
 C        2.5841360000     0.7516360000    -2.4468470000 
 C        2.9484540000     1.1226500000    -1.0140750000 
 H        0.6802480000    -0.4811070000     0.8300450000 
 H        0.5441470000    -0.0320240000    -0.7238060000 
 H        2.8826520000     0.3518370000     0.9769400000 
 H        2.5829530000    -2.0444980000     0.3219320000 
 H        4.0639160000    -1.3186020000    -0.2841810000 
 H        1.5097090000    -1.7782550000    -1.8991260000 
 H        3.0074850000    -2.6670960000    -2.0581880000 
 H        2.7924460000    -0.9060270000    -3.8244430000 
 H        4.1916520000    -0.6297720000    -2.7993260000 
 H        1.4954710000     0.7880480000    -2.5789540000 
 H        2.9911490000     1.4968440000    -3.1368280000 
 H        2.5374170000     2.1009470000    -0.7519420000 
 H        4.0393600000     1.1966850000    -0.9357410000 
*
