! RI PBE def2-SVP def2-SVP/J NBO PAL2
% maxcore 2000
% output
    # printlevel mini
    print[ P_Basis ] 0
    print[ P_SCFInfo ] 1
    print[ P_SCFIterInfo ] 1
    print[ P_OrbEn ] 0
    print[ P_Cartesian ] 0
end
*xyz 0 1
 N        0.9000850000     0.0120950000    -0.3826800000 
 C        2.3154020000     0.0801780000    -0.0056220000 
 C        2.6723200000     1.3159770000     0.7682880000 
 C        3.2285070000     1.3081240000     1.9740060000 
 C        3.6098110000     0.0566500000     2.6896200000 
 C        3.2451300000    -1.1789580000     1.9378520000 
 C        2.6774870000    -1.1677590000     0.7382010000 
 H        0.6579970000     0.7903130000    -0.9852850000 
 H        0.3282300000     0.0940860000     0.4509390000 
 H        2.8713230000     0.0845430000    -0.9547390000 
 H        2.4232350000     2.2641470000     0.2968280000 
 H        3.4302490000     2.2483780000     2.4799730000 
 H        3.1423460000     0.0381940000     3.6842720000 
 H        4.6895070000     0.0623540000     2.8979050000 
 H        3.4665800000    -2.1294700000     2.4152350000 
 H        2.4204800000    -2.0986620000     0.2422870000 
*
