! RI PBE def2-SVP def2-SVP/J NBO PAL2
% maxcore 2000
% output
    # printlevel mini
    print[ P_Basis ] 0
    print[ P_SCFInfo ] 1
    print[ P_SCFIterInfo ] 1
    print[ P_OrbEn ] 0
    print[ P_Cartesian ] 0
end
*xyz 0 1
 N        1.1175940000     0.0417860000     0.5552570000 
 C        2.4659040000     0.0552100000     0.0064110000 
 C        2.6771230000     1.3094000000    -0.8278500000 
 C        3.9515390000     1.2390170000    -1.6144630000 
 C        4.4033230000     0.0627320000    -2.0564380000 
 C        3.6620420000    -1.1596090000    -1.7695890000 
 C        2.7167010000    -1.1686010000    -0.8282140000 
 H        0.9807800000     0.8378980000     1.1668150000 
 H        0.9749810000    -0.7873600000     1.1200910000 
 H        3.2427020000     0.0545420000     0.7979380000 
 H        2.6664840000     2.1917320000    -0.1810330000 
 H        1.8266040000     1.4167110000    -1.5183900000 
 H        4.4616360000     2.1608180000    -1.8730670000 
 H        5.2985190000     0.0061100000    -2.6661840000 
 H        3.8905340000    -2.0575030000    -2.3336730000 
 H        2.1537260000    -2.0694720000    -0.6034080000 
*
