! RI PBE def2-SVP def2-SVP/J NBO PAL2
% maxcore 2000
% output
    # printlevel mini
    print[ P_Basis ] 0
    print[ P_SCFInfo ] 1
    print[ P_SCFIterInfo ] 1
    print[ P_OrbEn ] 0
    print[ P_Cartesian ] 0
end
*xyz 0 1
 N        1.0312580000     0.1965770000    -0.5122180000 
 C        2.3657140000     0.0702740000     0.0651210000 
 C        2.5198700000    -1.2279090000     0.8755120000 
 C        3.1997580000    -0.8221670000     2.1624440000 
 C        3.7625550000    -1.6261240000     3.0636960000 
 C        3.1259340000     0.6313260000     2.2231600000 
 C        2.6456840000     1.1365170000     1.0858840000 
 H        0.8859760000    -0.5251390000    -1.2092460000 
 H        0.9409220000     1.0831700000    -0.9953030000 
 H        3.1555290000     0.1177600000    -0.7054960000 
 H        3.0637490000    -2.0101670000     0.3428060000 
 H        1.5159800000    -1.6041560000     1.0974310000 
 H        3.7840800000    -2.7018990000     2.9327290000 
 H        4.2198620000    -1.2274990000     3.9621310000 
 H        3.4443010000     1.2056440000     3.0851030000 
 H        2.5046170000     2.1911930000     0.8766450000 
*
