! RI PBE def2-SVP def2-SVP/J NBO PAL2
% maxcore 2000
% output
    # printlevel mini
    print[ P_Basis ] 0
    print[ P_SCFInfo ] 1
    print[ P_SCFIterInfo ] 1
    print[ P_OrbEn ] 0
    print[ P_Cartesian ] 0
end
*xyz 0 1
 N        1.0044320000     0.1065020000    -0.1910030000 
 C        2.4299590000    -0.0479250000     0.1128270000 
 C        3.1951210000     1.1908300000    -0.3471370000 
 C        3.3824520000     1.1858710000    -1.8552840000 
 C        4.2140360000    -0.0141790000    -2.2830270000 
 C        3.7681990000    -1.2694860000    -1.6039010000 
 C        2.9588410000    -1.2859000000    -0.5504820000 
 H        0.5592340000     0.7028030000     0.4968400000 
 H        0.5325270000    -0.7889380000    -0.1611560000 
 H        2.5976700000    -0.1696420000     1.1957530000 
 H        4.1718400000     1.2089000000     0.1504350000 
 H        2.6553510000     2.0866550000    -0.0249110000 
 H        3.8520990000     2.1140670000    -2.1917290000 
 H        2.3953980000     1.1304300000    -2.3239900000 
 H        5.2768720000     0.1562650000    -2.0606120000 
 H        4.1619190000    -0.1501990000    -3.3686770000 
 H        4.1350490000    -2.2108140000    -2.0054380000 
 H        2.6542100000    -2.2381320000    -0.1214980000 
*
