! RI PBE def2-SVP def2-SVP/J NBO PAL2
% maxcore 2000
% output
    # printlevel mini
    print[ P_Basis ] 0
    print[ P_SCFInfo ] 1
    print[ P_SCFIterInfo ] 1
    print[ P_OrbEn ] 0
    print[ P_Cartesian ] 0
end
*xyz 0 1
 N        1.1566540000    -0.0806080000     0.1307380000 
 C        2.5103590000    -0.0086680000     0.0255600000 
 C        3.1753190000     1.2273980000    -0.0328130000 
 C        4.5476440000     1.2268550000    -0.1388300000 
 C        5.2344680000     0.0178540000    -0.1849980000 
 C        4.4840830000    -1.1418830000    -0.1204130000 
 N        3.1600160000    -1.1712950000    -0.0179890000 
 H        0.5868800000     0.7406440000     0.1692290000 
 H        0.7301160000    -0.9871820000     0.1681570000 
 H        2.6158130000     2.1552660000     0.0051780000 
 H        5.0849990000     2.1678970000    -0.1856940000 
 H        6.3126110000    -0.0223310000    -0.2680610000 
 H        4.9728280000    -2.1125470000    -0.1526450000 
*
