! RI PBE def2-SVP def2-SVP/J NBO PAL2
% maxcore 2000
% output
    # printlevel mini
    print[ P_Basis ] 0
    print[ P_SCFInfo ] 1
    print[ P_SCFIterInfo ] 1
    print[ P_OrbEn ] 0
    print[ P_Cartesian ] 0
end
*xyz 0 1
 N        0.7773380000     0.1361000000    -0.0019200000 
 C        2.0502960000     0.0215890000    -0.0008360000 
 C        2.7800620000    -1.3006560000     0.0024300000 
 C        4.2676060000    -1.2123400000     0.0030250000 
 C        4.9209810000    -0.0606960000     0.0010370000 
 C        4.2391200000     1.2587910000    -0.0019990000 
 N        2.8071800000     1.1496020000    -0.0026730000 
 H        0.3386680000    -0.7792340000    -0.0002920000 
 H        2.4377600000    -1.8717600000    -0.8685220000 
 H        2.4368520000    -1.8679500000     0.8755150000 
 H        4.8198400000    -2.1473040000     0.0052180000 
 H        6.0055450000    -0.0382850000     0.0015770000 
 H        4.5755970000     1.8300400000    -0.8800140000 
 H        4.5745250000     1.8335170000     0.8741590000 
 H        2.2658400000     1.9990760000    -0.0048060000 
*
