! RI PBE def2-SVP def2-SVP/J NBO PAL2
% maxcore 2000
% output
    # printlevel mini
    print[ P_Basis ] 0
    print[ P_SCFInfo ] 1
    print[ P_SCFIterInfo ] 1
    print[ P_OrbEn ] 0
    print[ P_Cartesian ] 0
end
*xyz 0 1
 N        1.0814610000    -0.0648030000     0.0022050000 
 C        2.4454070000    -0.0472420000    -0.0776940000 
 C        3.1700250000     1.1429470000    -0.1544300000 
 C        4.5485500000     1.0859730000    -0.2329320000 
 C        5.1786390000    -0.1495800000    -0.2336550000 
 N        4.5028290000    -1.2912730000    -0.1611630000 
 C        3.1846090000    -1.2380900000    -0.0860570000 
 H        0.5536800000     0.7856830000     0.0074320000 
 H        0.5830960000    -0.9314870000     0.0556770000 
 H        2.6531680000     2.0975390000    -0.1521230000 
 H        5.1327010000     1.9969570000    -0.2933850000 
 H        6.2599700000    -0.2250120000    -0.2943500000 
 H        2.6618540000    -2.1920020000    -0.0279340000 
*
