! RI PBE def2-SVP def2-SVP/J NBO PAL2
% maxcore 2000
% output
    # printlevel mini
    print[ P_Basis ] 0
    print[ P_SCFInfo ] 1
    print[ P_SCFIterInfo ] 1
    print[ P_OrbEn ] 0
    print[ P_Cartesian ] 0
end
*xyz 0 1
 N        0.9971420000     0.0253170000     0.0605170000 
 C        2.4461910000    -0.0792170000    -0.0751050000 
 C        2.9579640000    -1.4773500000    -0.4450850000 
 C        2.5919910000    -1.8457960000    -1.8774650000 
 C        3.0617640000    -0.7611870000    -2.8424300000 
 N        2.6179760000     0.5759260000    -2.4903870000 
 C        2.9372150000     0.9253010000    -1.1185230000 
 H        0.6625440000    -0.6147070000     0.7711540000 
 H        0.5390260000    -0.2458470000    -0.8018170000 
 H        2.8721750000     0.2094910000     0.8923130000 
 H        2.5647610000    -2.2174330000     0.2600230000 
 H        4.0501890000    -1.4936380000    -0.3393310000 
 H        1.5053940000    -1.9677120000    -1.9693310000 
 H        3.0313140000    -2.8112660000    -2.1482620000 
 H        2.7391970000    -0.9803360000    -3.8639540000 
 H        4.1599160000    -0.7492320000    -2.8568040000 
 H        1.6271720000     0.6853120000    -2.6673170000 
 H        2.5206190000     1.9107340000    -0.8980910000 
 H        4.0286500000     1.0041510000    -1.0419050000 
*
