! RI PBE def2-SVP def2-SVP/J NBO PAL2
% maxcore 2000
% output
    # printlevel mini
    print[ P_Basis ] 0
    print[ P_SCFInfo ] 1
    print[ P_SCFIterInfo ] 1
    print[ P_OrbEn ] 0
    print[ P_Cartesian ] 0
end
*xyz 0 1
 N        1.0822460000     0.2520620000     0.2604190000 
 C        2.4938290000    -0.0266540000     0.0440100000 
 C        2.8829910000    -1.4836100000    -0.2838480000 
 C        2.9540900000    -1.5333390000    -1.8077480000 
 N        3.4247050000    -0.2020600000    -2.2303180000 
 C        2.3385020000     0.7478430000    -2.4231110000 
 C        3.0716760000     0.7268380000    -1.1462500000 
 H        0.7469100000    -0.2533310000     1.0716940000 
 H        0.5229480000    -0.0514490000    -0.5271590000 
 H        3.0107990000     0.3006860000     0.9496780000 
 H        2.1899230000    -2.2098700000     0.1481870000 
 H        3.8765570000    -1.6891580000     0.1258270000 
 H        1.9766480000    -1.7591670000    -2.2505140000 
 H        3.6527920000    -2.2911690000    -2.1673250000 
 H        1.3238420000     0.3584280000    -2.4548820000 
 H        2.5295800000     1.5396590000    -3.1404770000 
 H        3.7928720000     1.5120930000    -0.9446930000 
*
