! RI PBE def2-SVP def2-SVP/J NBO PAL2
% maxcore 2000
% output
    # printlevel mini
    print[ P_Basis ] 0
    print[ P_SCFInfo ] 1
    print[ P_SCFIterInfo ] 1
    print[ P_OrbEn ] 0
    print[ P_Cartesian ] 0
end
*xyz 0 1
 N        1.0301720000    -0.0603350000    -0.0046060000 
 C        2.3883290000    -0.0459740000    -0.0721000000 
 C        3.1093400000     1.1523770000    -0.1001460000 
 C        4.4880710000     1.1034320000    -0.1690100000 
 N        5.2054560000    -0.0161870000    -0.2119690000 
 C        4.5111190000    -1.1507320000    -0.1848420000 
 C        3.1336880000    -1.2288200000    -0.1168690000 
 H        0.5083400000     0.7939430000     0.0263890000 
 H        0.5259190000    -0.9254540000     0.0142980000 
 H        2.5971010000     2.1079160000    -0.0684550000 
 H        5.0521620000     2.0329590000    -0.1910070000 
 H        5.0940950000    -2.0681310000    -0.2198120000 
 H        2.6410980000    -2.1949830000    -0.0986700000 
*
