! RI PBE def2-SVP def2-SVP/J NBO PAL2
% maxcore 2000
% output
    # printlevel mini
    print[ P_Basis ] 0
    print[ P_SCFInfo ] 1
    print[ P_SCFIterInfo ] 1
    print[ P_OrbEn ] 0
    print[ P_Cartesian ] 0
end
*xyz 0 1
 N        0.9152560000    -0.0888590000     0.0081260000 
 C        2.3807190000    -0.0819290000    -0.0337550000 
 C        2.9459330000    -1.3516160000     0.6161100000 
 C        3.2422780000    -0.9882240000     2.0859510000 
 N        4.4005030000    -1.6091210000     2.7067340000 
 C        3.3601560000     0.5082790000     2.0197190000 
 C        2.9113210000     0.9984410000     0.8721440000 
 H        0.5501250000    -0.7149040000    -0.7007130000 
 H        0.5520630000     0.8332970000    -0.2028110000 
 H        2.7619300000     0.0407140000    -1.0592500000 
 H        3.8934700000    -1.6154320000     0.1352760000 
 H        2.2670740000    -2.2014000000     0.5120070000 
 H        2.3804190000    -1.2377070000     2.7177420000 
 H        5.2224740000    -1.4728940000     2.1286750000 
 H        4.2626850000    -2.6079850000     2.7988990000 
 H        3.7447380000     1.0853160000     2.8529150000 
 H        2.8597560000     2.0514240000     0.6160180000 
*
