! RI PBE def2-SVP def2-SVP/J NBO PAL2
% maxcore 2000
% output
    # printlevel mini
    print[ P_Basis ] 0
    print[ P_SCFInfo ] 1
    print[ P_SCFIterInfo ] 1
    print[ P_OrbEn ] 0
    print[ P_Cartesian ] 0
end
*xyz 0 1
 N        1.0355440000     0.1200870000     0.0886750000 
 C        2.4877010000     0.1383340000     0.0546460000 
 C        3.1085170000    -0.9551070000     0.9724860000 
 N        3.8804390000    -0.1749080000     1.9625600000 
 C        4.5121380000     0.8319180000     1.0397990000 
 C        3.0847280000     1.3393320000     0.7899750000 
 C        2.8853250000     0.9158610000     2.2522410000 
 H        0.6841780000    -0.7793590000    -0.2166860000 
 H        0.6526930000     0.8131680000    -0.5431680000 
 H        2.8960910000     0.0761100000    -0.9650310000 
 H        3.7726670000    -1.6376050000     0.4391990000 
 H        2.3340630000    -1.5355660000     1.4787580000 
 H        5.0801040000     0.4051030000     0.2077360000 
 H        5.1340760000     1.5249820000     1.6080670000 
 H        2.8532040000     2.3345250000     0.4054150000 
 H        1.8963270000     0.5755630000     2.5616010000 
 H        3.3050140000     1.6184720000     2.9735160000 
*
