! RI PBE def2-SVP def2-SVP/J NBO PAL2
% maxcore 2000
% output
    # printlevel mini
    print[ P_Basis ] 0
    print[ P_SCFInfo ] 1
    print[ P_SCFIterInfo ] 1
    print[ P_OrbEn ] 0
    print[ P_Cartesian ] 0
end
*xyz 0 1
 N        1.0997410000     0.4851330000     0.0535630000 
 C        2.5060400000     0.2015310000     0.0325640000 
 C        3.3551460000     0.9831190000     1.0679820000 
 N        4.1568870000    -0.2272850000     1.2844100000 
 C        3.0758680000    -1.0624430000     0.7525130000 
 C        3.0814250000     0.3268520000    -1.3407590000 
 C        2.4412310000     0.7686510000    -2.4141650000 
 H        0.7151740000     0.3377590000     0.9776120000 
 H        0.5999330000    -0.1148570000    -0.5918550000 
 H        2.7300760000     1.2743640000     1.9244680000 
 H        3.9069400000     1.8566100000     0.7126710000 
 H        4.4356130000    -0.4117680000     2.2384660000 
 H        2.3597350000    -1.4159530000     1.5084000000 
 H        3.3982310000    -1.9078180000     0.1372280000 
 H        4.1226240000     0.0226490000    -1.4142380000 
 H        1.4130210000     1.1086530000    -2.3658580000 
 H        2.9388060000     0.8241920000    -3.3752220000 
*
