! RI PBE def2-SVP def2-SVP/J NBO PAL2
% maxcore 2000
% output
    # printlevel mini
    print[ P_Basis ] 0
    print[ P_SCFInfo ] 1
    print[ P_SCFIterInfo ] 1
    print[ P_OrbEn ] 0
    print[ P_Cartesian ] 0
end
*xyz 0 1
 N        0.8269570000     0.0467770000     0.0995420000 
 C        2.2623070000    -0.0126110000    -0.0342850000 
 C        3.0441820000     1.0423830000     0.7905450000 
 N        4.0390300000     0.0175090000     1.1256730000 
 C        3.1015310000    -1.0532620000     0.7765270000 
 C        2.6211890000    -0.0111110000    -1.4436690000 
 C        2.9116760000    -0.0328070000    -2.6078930000 
 H        0.5475700000    -0.1545820000     1.0514710000 
 H        0.3754550000    -0.6189220000    -0.5145080000 
 H        2.4245420000     1.3772610000     1.6337280000 
 H        3.4280820000     1.9118200000     0.2539030000 
 H        4.3709070000     0.0207680000     2.0802600000 
 H        2.5034140000    -1.4332490000     1.6175720000 
 H        3.5358260000    -1.8925650000     0.2285810000 
 H        3.1754120000    -0.0427790000    -3.6388580000 
*
