! RI PBE def2-SVP def2-SVP/J NBO PAL2
% maxcore 2000
% output
    # printlevel mini
    print[ P_Basis ] 0
    print[ P_SCFInfo ] 1
    print[ P_SCFIterInfo ] 1
    print[ P_OrbEn ] 0
    print[ P_Cartesian ] 0
end
*xyz 0 1
 N        1.3065330000    -0.2945360000     0.4181320000 
 C        2.6846890000    -0.1918260000     0.0561120000 
 C        3.2604810000    -0.7368970000    -1.2298100000 
 N        2.4262110000    -1.4872760000    -2.1148970000 
 C        3.1038620000     0.7524580000    -1.0348450000 
 C        4.2388760000     1.6789420000    -0.8492140000 
 C        5.5136160000     1.4168780000    -1.1085000000 
 H        1.0431680000    -1.2375790000     0.6753570000 
 H        0.6831160000     0.0390850000    -0.3026630000 
 H        3.3498460000    -0.2335570000     0.9127540000 
 H        4.2730300000    -1.1202290000    -1.1493410000 
 H        2.3969180000    -1.0927330000    -3.0452050000 
 H        1.4781250000    -1.5432620000    -1.7643850000 
 H        2.2584100000     1.1819950000    -1.5710340000 
 H        3.9778410000     2.6587480000    -0.4519370000 
 H        5.8325650000     0.4619820000    -1.5122870000 
 H        6.2858220000     2.1542260000    -0.9241360000 
*
