! RI PBE def2-SVP def2-SVP/J NBO PAL2
% maxcore 2000
% output
    # printlevel mini
    print[ P_Basis ] 0
    print[ P_SCFInfo ] 1
    print[ P_SCFIterInfo ] 1
    print[ P_OrbEn ] 0
    print[ P_Cartesian ] 0
end
*xyz 0 1
 N        0.8907670000    -0.1030290000    -0.0296860000 
 C        2.3153990000    -0.0073440000     0.0202230000 
 C        3.0695550000     1.0028510000     0.9145490000 
 N        4.0552110000    -0.0488570000     1.1951710000 
 C        3.0761330000    -1.0888940000     0.8292290000 
 C        3.5845490000    -2.2668990000     0.1563000000 
 C        3.9903490000    -3.2450730000    -0.4098020000 
 H        0.4903470000     0.5331460000    -0.7048310000 
 H        0.4655150000     0.0785970000     0.8704060000 
 H        2.7095910000     0.0180370000    -0.9964930000 
 H        2.4493750000     1.2855940000     1.7789500000 
 H        3.4764410000     1.9069770000     0.4546000000 
 H        4.4049920000    -0.0993080000     2.1430100000 
 H        2.4420450000    -1.4031570000     1.6735380000 
 H        4.3548410000    -4.1083290000    -0.9141740000 
*
