! RI PBE def2-SVP def2-SVP/J NBO PAL2
% maxcore 2000
% output
    # printlevel mini
    print[ P_Basis ] 0
    print[ P_SCFInfo ] 1
    print[ P_SCFIterInfo ] 1
    print[ P_OrbEn ] 0
    print[ P_Cartesian ] 0
end
*xyz 0 1
 N        1.0279000000     0.3103250000     0.2057650000 
 C        2.3981160000    -0.0469470000    -0.1275430000 
 C        2.6931790000    -1.5286120000    -0.4699220000 
 N        2.8551100000    -1.6394990000    -1.9193570000 
 C        3.2041550000    -0.3353110000    -2.4223050000 
 C        2.0867450000     0.6426090000    -2.6207850000 
 C        2.9049800000     0.6823320000    -1.3624170000 
 H        0.7102340000    -0.2152110000     1.0112060000 
 H        0.4005680000     0.0930950000    -0.5588680000 
 H        3.0098920000     0.2527510000     0.7291230000 
 H        1.9077560000    -2.1992860000    -0.1108540000 
 H        3.6272970000    -1.8323870000     0.0186540000 
 H        2.0190050000    -1.9933120000    -2.3626480000 
 H        4.0939330000    -0.2637690000    -3.0392900000 
 H        1.0728230000     0.2573810000    -2.5959420000 
 H        2.2303410000     1.4570440000    -3.3214670000 
 H        3.5477700000     1.5416160000    -1.2212510000 
*
