! RI PBE def2-SVP def2-SVP/J NBO PAL2
% maxcore 2000
% output
    # printlevel mini
    print[ P_Basis ] 0
    print[ P_SCFInfo ] 1
    print[ P_SCFIterInfo ] 1
    print[ P_OrbEn ] 0
    print[ P_Cartesian ] 0
end
*xyz 0 1
 N        1.0020110000    -0.1164160000    -0.0187810000 
 C        2.4358520000    -0.0544440000     0.1279200000 
 C        3.0439740000     1.0341880000     1.0203920000 
 N        4.3881070000     0.5324180000     1.2264960000 
 C        4.2628450000    -0.8959650000     1.5043970000 
 C        3.0288370000    -1.3028130000     0.7390130000 
 C        2.5005730000    -2.5147460000     0.6675530000 
 H        0.6438160000     0.7200180000    -0.4611040000 
 H        0.5535320000    -0.2115230000     0.8848370000 
 H        2.8694780000     0.0701220000    -0.8727520000 
 H        2.4426590000     1.1077340000     1.9456480000 
 H        3.0582700000     2.0177530000     0.5431950000 
 H        4.8945120000     1.0279210000     1.9459950000 
 H        4.1162490000    -1.1184140000     2.5736720000 
 H        5.1556140000    -1.4367080000     1.1766080000 
 H        2.9625600000    -3.3680400000     1.1526600000 
 H        1.5841910000    -2.6798850000     0.1128610000 
*
