! RI PBE def2-SVP def2-SVP/J NBO PAL2
% maxcore 2000
% output
    # printlevel mini
    print[ P_Basis ] 0
    print[ P_SCFInfo ] 1
    print[ P_SCFIterInfo ] 1
    print[ P_OrbEn ] 0
    print[ P_Cartesian ] 0
end
*xyz 0 1
 N        1.1876740000    -0.1326060000     0.1287240000 
 C        2.5742330000     0.1787480000    -0.1561970000 
 C        2.7705070000     1.5429880000    -0.8337970000 
 N        4.0293790000     1.4546240000    -1.5590310000 
 C        4.0500860000     0.0936120000    -2.0910950000 
 C        3.2192480000    -0.7566610000    -1.1527350000 
 C        3.0697300000    -2.0713980000    -1.2072280000 
 H        0.8792550000     0.3405200000     0.9688620000 
 H        1.0651980000    -1.1247530000     0.2849610000 
 H        3.2081740000     0.1660260000     0.7494620000 
 H        2.7790240000     2.3826360000    -0.1361430000 
 H        1.9468890000     1.6952250000    -1.5398960000 
 H        4.7971770000     1.5690500000    -0.9083720000 
 H        5.0727970000    -0.2701420000    -2.2088250000 
 H        3.5899360000     0.0900650000    -3.0868070000 
 H        3.5683150000    -2.6691290000    -1.9628190000 
 H        2.4437660000    -2.6127950000    -0.5047560000 
*
