! RI PBE def2-SVP def2-SVP/J NBO PAL2
% maxcore 2000
% output
    # printlevel mini
    print[ P_Basis ] 0
    print[ P_SCFInfo ] 1
    print[ P_SCFIterInfo ] 1
    print[ P_OrbEn ] 0
    print[ P_Cartesian ] 0
end
*xyz 0 1
 N        0.9994470000    -0.0923200000     0.0809060000 
 C        2.2746260000     0.0027670000     0.0535150000 
 N        3.0137770000     1.1414620000     0.2989060000 
 C        4.3680500000     1.2436280000    -0.2113830000 
 C        5.1680970000     0.0178230000     0.1867560000 
 C        4.3916590000    -1.2246330000    -0.1062070000 
 C        3.0629550000    -1.2117620000    -0.1881030000 
 H        0.5627510000     0.8096510000     0.2716360000 
 H        2.4786780000     1.9953980000     0.2805200000 
 H        4.8226670000     2.1479740000     0.1984510000 
 H        4.3776570000     1.3349850000    -1.3079410000 
 H        5.4124320000     0.0525280000     1.2564640000 
 H        6.1208800000     0.0126550000    -0.3499260000 
 H        4.9347110000    -2.1566490000    -0.2293490000 
 H        2.4828140000    -2.1034860000    -0.3878440000 
*
