! RI PBE def2-SVP def2-SVP/J NBO PAL2
% maxcore 2000
% output
    # printlevel mini
    print[ P_Basis ] 0
    print[ P_SCFInfo ] 1
    print[ P_SCFIterInfo ] 1
    print[ P_OrbEn ] 0
    print[ P_Cartesian ] 0
end
*xyz 0 1
 N        3.3479860000     0.4720590000     0.7493960000 
 C        2.3962210000    -0.1616950000    -0.1493590000 
 C        2.7677940000     0.0947790000    -1.5792130000 
 C        1.7344850000     0.0134290000    -2.6563760000 
 C        2.2842020000     1.3509340000    -2.2698860000 
 C        3.1884540000     2.1220910000    -3.1455410000 
 C        3.4168650000     1.8998440000    -4.4334350000 
 H        3.1045480000     0.2963680000     1.7159460000 
 H        3.3386570000     1.4761420000     0.6151660000 
 H        1.3519330000     0.1607350000     0.0017420000 
 H        2.4202020000    -1.2403250000     0.0416430000 
 H        3.7701300000    -0.2213260000    -1.8503860000 
 H        0.7144370000    -0.2098630000    -2.3658120000 
 H        2.0291210000    -0.4086490000    -3.6085150000 
 H        1.6269830000     1.9653080000    -1.6578580000 
 H        3.7167860000     2.9400270000    -2.6579570000 
 H        2.9093620000     1.1112050000    -4.9784270000 
 H        4.1222230000     2.5050280000    -4.9904380000 
*
