! RI PBE def2-SVP def2-SVP/J NBO PAL2
% maxcore 2000
% output
    # printlevel mini
    print[ P_Basis ] 0
    print[ P_SCFInfo ] 1
    print[ P_SCFIterInfo ] 1
    print[ P_OrbEn ] 0
    print[ P_Cartesian ] 0
end
*xyz 0 1
 N        3.0809720000     1.0734340000     0.5486770000 
 C        2.4979220000    -0.0851320000    -0.1049230000 
 C        2.9900300000    -0.1945480000    -1.5174540000 
 C        2.2148250000    -0.9615870000    -2.5294940000 
 C        2.2475820000     0.5470200000    -2.6089730000 
 C        2.9644610000     1.1965890000    -3.6622380000 
 C        3.5692220000     1.7417980000    -4.5464930000 
 H        2.7504090000     1.1581530000     1.5012060000 
 H        2.8213540000     1.9221190000     0.0605100000 
 H        1.3943740000    -0.0899960000    -0.1195080000 
 H        2.8054730000    -0.9782060000     0.4500200000 
 H        4.0693570000    -0.2015580000    -1.6224790000 
 H        1.2775140000    -1.4123690000    -2.2250510000 
 H        2.7598510000    -1.5048660000    -3.2898640000 
 H        1.3372790000     1.0518010000    -2.2983940000 
 H        4.1057770000     2.2248470000    -5.3279530000 
*
