! RI PBE def2-SVP def2-SVP/J NBO PAL2
% maxcore 2000
% output
    # printlevel mini
    print[ P_Basis ] 0
    print[ P_SCFInfo ] 1
    print[ P_SCFIterInfo ] 1
    print[ P_OrbEn ] 0
    print[ P_Cartesian ] 0
end
*xyz 0 1
 N        3.0100680000    -0.9206560000     0.7500330000 
 C        2.4182970000     0.1255660000    -0.0745120000 
 C        3.1654020000     1.4284740000     0.0739290000 
 C        2.5959700000     2.6897120000    -0.6016880000 
 C        3.0538090000     3.5079560000     0.6192480000 
 C        3.1106420000     2.2020200000     1.4235210000 
 N        4.1323120000     2.1061060000     2.4342140000 
 H        2.5762320000    -1.8143680000     0.5556130000 
 H        2.8415150000    -0.7296090000     1.7303700000 
 H        1.3519310000     0.3069510000     0.1433990000 
 H        2.4692390000    -0.2007820000    -1.1190120000 
 H        4.2152960000     1.2823170000    -0.2046260000 
 H        1.5053460000     2.6438170000    -0.6683970000 
 H        2.9919560000     2.9667080000    -1.5792800000 
 H        2.4138020000     4.3107680000     0.9875040000 
 H        4.0621830000     3.9058670000     0.4726100000 
 H        2.1386150000     2.0212810000     1.8995420000 
 H        5.0492560000     2.2182030000     2.0172080000 
 H        4.1256260000     1.2000590000     2.8860250000 
*
