! RI PBE def2-SVP def2-SVP/J NBO PAL2
% maxcore 2000
% output
    # printlevel mini
    print[ P_Basis ] 0
    print[ P_SCFInfo ] 1
    print[ P_SCFIterInfo ] 1
    print[ P_OrbEn ] 0
    print[ P_Cartesian ] 0
end
*xyz 0 1
 N        0.9487890000    -0.0128210000    -0.3036420000 
 C        2.0888700000    -0.0299140000    -0.1512700000 
 C        3.5259180000    -0.0523670000     0.0596400000 
 C        4.0516030000     1.1013360000     0.9211730000 
 C        5.4697290000     0.6490940000     1.2645420000 
 C        5.4122890000    -0.8927300000     1.3336280000 
 C        4.0230970000    -1.2953930000     0.8122580000 
 H        4.0040820000    -0.0075290000    -0.9260790000 
 H        3.4361350000     1.1774330000     1.8220720000 
 H        4.0108430000     2.0639190000     0.4095950000 
 H        5.8261450000     1.0977800000     2.1929090000 
 H        6.1585860000     0.9655360000     0.4769690000 
 H        5.5622360000    -1.2586000000     2.3505500000 
 H        6.2021490000    -1.3352890000     0.7237180000 
 H        3.3409450000    -1.4974420000     1.6415940000 
 H        4.0368750000    -2.1839340000     0.1800420000 
*
