! RI PBE def2-SVP def2-SVP/J NBO PAL2
% maxcore 2000
% output
    # printlevel mini
    print[ P_Basis ] 0
    print[ P_SCFInfo ] 1
    print[ P_SCFIterInfo ] 1
    print[ P_OrbEn ] 0
    print[ P_Cartesian ] 0
end
*xyz 0 1
 N        0.9685890000    -0.0601320000     0.0182060000 
 C        2.1201220000    -0.0960150000    -0.0249510000 
 C        3.5381850000    -0.0966920000    -0.0791690000 
 C        4.3051450000    -1.1873310000    -0.1531900000 
 C        5.7582830000    -0.8380530000    -0.1351860000 
 C        5.7617470000     0.6793050000    -0.3846780000 
 C        4.3578410000     1.1674280000     0.0047540000 
 H        3.9267860000    -2.2019000000    -0.1808040000 
 H        6.3343120000    -1.3932640000    -0.8801200000 
 H        6.1878030000    -1.0983540000     0.8410640000 
 H        5.9250630000     0.8673080000    -1.4483380000 
 H        6.5514760000     1.1959180000     0.1615970000 
 H        3.9816270000     1.9535950000    -0.6529300000 
 H        4.3222110000     1.5640780000     1.0257530000 
*
