! RI PBE def2-SVP def2-SVP/J NBO PAL2
% maxcore 2000
% output
    # printlevel mini
    print[ P_Basis ] 0
    print[ P_SCFInfo ] 1
    print[ P_SCFIterInfo ] 1
    print[ P_OrbEn ] 0
    print[ P_Cartesian ] 0
end
*xyz 0 1
 N        1.0319000000     0.0403830000     0.0859020000 
 C        2.1836730000     0.0108420000     0.0870980000 
 C        3.6038660000    -0.0002330000     0.0883340000 
 C        4.3875130000    -1.0977990000     0.0896140000 
 C        5.8108320000    -0.6662230000     0.0906270000 
 C        5.7285890000     0.8232780000     0.0897380000 
 C        4.4439120000     1.2012900000     0.0884120000 
 H        4.0491830000    -2.1239470000     0.0898790000 
 H        6.3514210000    -1.0533030000    -0.7833790000 
 H        6.3498880000    -1.0523440000     0.9660040000 
 H        6.5897830000     1.4764990000     0.0901340000 
 H        4.0569400000     2.2107460000     0.0875260000 
*
