! RI PBE def2-SVP def2-SVP/J NBO PAL2
% maxcore 2000
% output
    # printlevel mini
    print[ P_Basis ] 0
    print[ P_SCFInfo ] 1
    print[ P_SCFIterInfo ] 1
    print[ P_OrbEn ] 0
    print[ P_Cartesian ] 0
end
*xyz 0 1
 N        0.9825800000     0.0340120000     0.0517550000 
 C        2.1277870000     0.0335860000    -0.0490190000 
 C        3.5794000000     0.0331120000    -0.1642660000 
 C        4.1340880000     1.2136480000    -0.9166970000 
 C        4.9245240000     0.7628840000    -1.8976340000 
 C        4.9241030000    -0.6985050000    -1.8971680000 
 C        4.1334130000    -1.1482000000    -0.9159440000 
 H        3.9891890000     0.0333080000     0.8579280000 
 H        3.9121570000     2.2382070000    -0.6568070000 
 H        5.4846350000     1.3760870000    -2.5911180000 
 H        5.4838910000    -1.3124730000    -2.5902370000 
 H        3.9109340000    -2.1724760000    -0.6553930000 
*
