! RI PBE def2-SVP def2-SVP/J NBO PAL2
% maxcore 2000
% output
    # printlevel mini
    print[ P_Basis ] 0
    print[ P_SCFInfo ] 1
    print[ P_SCFIterInfo ] 1
    print[ P_OrbEn ] 0
    print[ P_Cartesian ] 0
end
*xyz 0 1
 N        4.1074640000     0.7321890000     0.5397930000 
 C        2.7781730000     0.2359720000     0.8824500000 
 C        2.2182720000    -0.7906090000    -0.0511710000 
 C        1.9302910000    -2.0762640000     0.2202000000 
 C        1.4188650000    -2.7504960000    -1.0087430000 
 C        1.4548800000    -1.6647830000    -2.0330920000 
 C        1.9177380000    -0.5419620000    -1.4651860000 
 H        4.7420520000    -0.0489350000     0.4201560000 
 H        4.0846890000     1.2206850000    -0.3472840000 
 H        2.1062460000     1.0998100000     0.9309630000 
 H        2.8166590000    -0.1797210000     1.8931060000 
 H        2.0422620000    -2.5653640000     1.1793950000 
 H        0.4029660000    -3.1443410000    -0.8708070000 
 H        2.0357310000    -3.6113470000    -1.2994990000 
 H        1.1421380000    -1.7896700000    -3.0609530000 
 H        2.0469840000     0.4130260000    -1.9611300000 
*
