! RI PBE def2-SVP def2-SVP/J NBO PAL2
% maxcore 2000
% output
    # printlevel mini
    print[ P_Basis ] 0
    print[ P_SCFInfo ] 1
    print[ P_SCFIterInfo ] 1
    print[ P_OrbEn ] 0
    print[ P_Cartesian ] 0
end
*xyz 0 1
 N        2.4194470000    -1.6281330000     0.0570820000 
 C        2.4697060000    -0.1780690000     0.1481120000 
 C        2.9532000000     0.4313820000    -1.1678190000 
 C        3.0858780000     1.9222980000    -1.1419680000 
 C        2.3755340000     2.4490060000    -2.1506640000 
 C        1.7233410000     1.3718410000    -2.8917420000 
 C        2.0421320000     0.1955780000    -2.3310220000 
 H        1.9609840000    -2.0211440000     0.8688310000 
 H        3.3551330000    -2.0154530000     0.0296790000 
 H        3.1127910000     0.1933360000     0.9605220000 
 H        1.4591920000     0.1895240000     0.3476500000 
 H        3.9393020000    -0.0078550000    -1.3957160000 
 H        3.6777660000     2.4630200000    -0.4152010000 
 H        2.2901260000     3.5017290000    -2.3892650000 
 H        1.0800520000     1.5174060000    -3.7503660000 
 H        1.7073960000    -0.7880660000    -2.6270320000 
*
