! RI PBE def2-SVP def2-SVP/J NBO PAL2
% maxcore 2000
% output
    # printlevel mini
    print[ P_Basis ] 0
    print[ P_SCFInfo ] 1
    print[ P_SCFIterInfo ] 1
    print[ P_OrbEn ] 0
    print[ P_Cartesian ] 0
end
*xyz 0 1
 N        3.4634490000    -0.7828850000    -0.7136310000 
 C        2.4649640000    -0.1338730000     0.1210700000 
 C        3.0720150000     1.0390700000     0.8891940000 
 C        2.0467740000     1.7735050000     1.7787190000 
 C        1.7252880000     3.1007580000     1.0663370000 
 C        2.8320460000     3.2292120000     0.0630450000 
 C        3.5640220000     2.1252010000    -0.0262440000 
 H        3.0394570000    -1.4923210000    -1.2973090000 
 H        4.1538330000    -1.2497960000    -0.1373300000 
 H        1.9847380000    -0.8118840000     0.8454940000 
 H        1.6723350000     0.2472870000    -0.5318650000 
 H        3.8934110000     0.6370290000     1.4976280000 
 H        2.4893020000     1.9801310000     2.7553550000 
 H        1.1545560000     1.1680310000     1.9571000000 
 H        1.6879880000     3.9443080000     1.7624090000 
 H        0.7498680000     3.0791460000     0.5647000000 
 H        2.9777810000     4.1187250000    -0.5400320000 
 H        4.3864950000     1.9704360000    -0.7129700000 
*
