! RI PBE def2-SVP def2-SVP/J NBO PAL2
% maxcore 2000
% output
    # printlevel mini
    print[ P_Basis ] 0
    print[ P_SCFInfo ] 1
    print[ P_SCFIterInfo ] 1
    print[ P_OrbEn ] 0
    print[ P_Cartesian ] 0
end
*xyz 0 1
 N        1.3193230000    -0.3325230000     1.4710750000 
 C        2.2578650000    -0.1316560000     0.8360470000 
 C        3.4762030000     0.0698310000     0.0277180000 
 C        4.3011470000     1.2593300000     0.5491720000 
 C        5.3376790000     0.6234010000     1.4973740000 
 C        5.0647010000    -0.8809700000     1.4260570000 
 N        4.4098040000    -1.0349400000     0.1328540000 
 H        3.1581940000     0.2127870000    -1.0084190000 
 H        3.6709670000     2.0015770000     1.0380610000 
 H        4.7902440000     1.7406040000    -0.2976280000 
 H        5.2454100000     0.9957480000     2.5177580000 
 H        6.3484190000     0.8480090000     1.1551200000 
 H        4.4201080000    -1.1891510000     2.2625040000 
 H        5.9749120000    -1.4822060000     1.4617560000 
 H        3.9640140000    -1.9360420000     0.0169520000 
*
