! RI PBE def2-SVP def2-SVP/J NBO PAL2
% maxcore 2000
% output
    # printlevel mini
    print[ P_Basis ] 0
    print[ P_SCFInfo ] 1
    print[ P_SCFIterInfo ] 1
    print[ P_OrbEn ] 0
    print[ P_Cartesian ] 0
end
*xyz 0 1
 N        0.9088240000    -0.0328680000     0.0463270000 
 C        2.0602550000     0.0406960000     0.0509850000 
 C        3.4671650000     0.1168330000     0.0564230000 
 C        4.3060100000     1.2132970000     0.0595540000 
 C        5.6254350000     0.7259140000     0.0647100000 
 C        5.5570300000    -0.6486610000     0.0646060000 
 N        4.2516080000    -1.0073780000     0.0595960000 
 H        3.9833390000     2.2420110000     0.0581910000 
 H        6.5302320000     1.3121870000     0.0681450000 
 H        6.3390100000    -1.3908180000     0.0677210000 
 H        3.8985910000    -1.9480130000     0.0583430000 
*
