! RI PBE def2-SVP def2-SVP/J NBO PAL2
% maxcore 2000
% output
    # printlevel mini
    print[ P_Basis ] 0
    print[ P_SCFInfo ] 1
    print[ P_SCFIterInfo ] 1
    print[ P_OrbEn ] 0
    print[ P_Cartesian ] 0
end
*xyz 0 1
 N        3.4479900000     0.4957820000    -0.8129540000 
 C        2.5601260000    -0.2937980000     0.0200870000 
 C        3.0475490000    -0.3198980000     1.4286470000 
 C        3.8045660000     0.5790060000     2.1394420000 
 C        3.9469830000     0.0726110000     3.4560670000 
 C        3.2716990000    -1.1178430000     3.5118910000 
 N        2.7354430000    -1.3447860000     2.2761880000 
 H        3.1076340000     0.5362080000    -1.7644910000 
 H        4.3740470000     0.0868490000    -0.8281920000 
 H        2.4264890000    -1.3352030000    -0.3230140000 
 H        1.5666720000     0.1702830000    -0.0258670000 
 H        4.2016230000     1.4997730000     1.7429190000 
 H        4.4865870000     0.5296930000     4.2708500000 
 H        3.1376220000    -1.8208430000     4.3181440000 
 H        2.1948710000    -2.1517140000     2.0222840000 
*
