! RI PBE def2-SVP def2-SVP/J NBO PAL2
% maxcore 2000
% output
    # printlevel mini
    print[ P_Basis ] 0
    print[ P_SCFInfo ] 1
    print[ P_SCFIterInfo ] 1
    print[ P_OrbEn ] 0
    print[ P_Cartesian ] 0
end
*xyz 0 1
 N        1.0564630000    -0.2118660000     0.9374850000 
 C        2.1215810000    -0.1475470000     0.5061310000 
 C        3.4798720000    -0.0855810000    -0.0081100000 
 C        4.2736360000     1.1028930000     0.5956010000 
 C        5.4446760000     0.4313990000     1.3418090000 
 N        5.0521900000    -0.9441700000     1.6038670000 
 C        4.3050770000    -1.3329150000     0.4286160000 
 H        3.4161860000    -0.0189950000    -1.0968900000 
 H        3.6432660000     1.6690150000     1.2821630000 
 H        4.6112090000     1.7896400000    -0.1815800000 
 H        5.7087510000     0.9440040000     2.2673160000 
 H        6.3361620000     0.4214170000     0.7061130000 
 H        4.4507260000    -0.9824450000     2.4191130000 
 H        3.6861470000    -2.2101370000     0.6140730000 
 H        5.0074770000    -1.5751030000    -0.3751160000 
*
