! RI PBE def2-SVP def2-SVP/J NBO PAL2
% maxcore 2000
% output
    # printlevel mini
    print[ P_Basis ] 0
    print[ P_SCFInfo ] 1
    print[ P_SCFIterInfo ] 1
    print[ P_OrbEn ] 0
    print[ P_Cartesian ] 0
end
*xyz 0 1
 N        2.3208100000     0.6661570000     1.3749350000 
 C        2.3945230000    -0.1053280000     0.1358280000 
 C        2.9026410000    -1.4852700000     0.3808850000 
 C        2.3020740000    -2.6368120000     0.1061520000 
 C        3.1439230000    -3.7992280000     0.5390430000 
 N        4.4268620000    -3.2078160000     0.9399510000 
 C        4.2300860000    -1.7586030000     1.0401330000 
 H        1.9567290000     1.5915150000     1.1838600000 
 H        3.2461240000     0.7966590000     1.7657730000 
 H        3.0338100000     0.3695620000    -0.6290450000 
 H        1.3886570000    -0.1649470000    -0.2876030000 
 H        1.3108090000    -2.7413300000    -0.3196670000 
 H        3.2860180000    -4.5481600000    -0.2474240000 
 H        2.6722810000    -4.3230040000     1.3831120000 
 H        5.1099310000    -3.3951210000     0.2209540000 
 H        5.0586590000    -1.2144260000     0.5707440000 
 H        4.2023630000    -1.4411580000     2.0927690000 
*
