! RI PBE def2-SVP def2-SVP/J NBO PAL2
% maxcore 2000
% output
    # printlevel mini
    print[ P_Basis ] 0
    print[ P_SCFInfo ] 1
    print[ P_SCFIterInfo ] 1
    print[ P_OrbEn ] 0
    print[ P_Cartesian ] 0
end
*xyz 0 1
 N        2.2786700000    -1.4775720000     0.2518760000 
 C        2.2731510000    -0.0622060000    -0.0849780000 
 C        2.8244050000     0.7593810000     1.0541440000 
 C        2.8022440000     2.2953280000     0.9195670000 
 C        2.3409640000     2.4080140000     2.3860540000 
 N        3.4182460000     2.8036010000     3.2689080000 
 C        1.9677260000     0.9012000000     2.3328080000 
 H        1.9174730000    -2.0315420000    -0.5143420000 
 H        1.6740500000    -1.6482360000     1.0470680000 
 H        1.2740080000     0.3301910000    -0.3433850000 
 H        2.9040560000     0.0791220000    -0.9696520000 
 H        3.8260650000     0.3917480000     1.2953010000 
 H        2.0299020000     2.6285890000     0.2213090000 
 H        3.7373800000     2.8025390000     0.6743830000 
 H        1.5015640000     3.0843570000     2.5641500000 
 H        4.2339320000     2.2190900000     3.1233110000 
 H        3.1446390000     2.6899550000     4.2380760000 
 H        0.9033550000     0.7544600000     2.1195360000 
 H        2.2394520000     0.3001720000     3.2038660000 
*
