! RI PBE def2-SVP def2-SVP/J NBO PAL2
% maxcore 2000
% output
    # printlevel mini
    print[ P_Basis ] 0
    print[ P_SCFInfo ] 1
    print[ P_SCFIterInfo ] 1
    print[ P_OrbEn ] 0
    print[ P_Cartesian ] 0
end
*xyz 0 1
 N        3.1268830000     0.2880780000    -1.2673160000 
 C        2.6596090000    -0.2262980000     0.0126130000 
 C        2.9714160000     0.7236550000     1.1220270000 
 C        3.1744200000     2.0765960000     1.0008980000 
 N        3.4077490000     2.5803710000     2.2478060000 
 C        3.3604180000     1.5794120000     3.1701440000 
 C        3.0934760000     0.4121600000     2.5020940000 
 H        2.8716310000    -0.3413300000    -2.0174860000 
 H        4.1376390000     0.3579980000    -1.2619740000 
 H        3.0704430000    -1.2147700000     0.2718260000 
 H        1.5740490000    -0.3606460000    -0.0656370000 
 H        3.1637150000     2.7020660000     0.1236360000 
 H        3.6014330000     3.5432270000     2.4511590000 
 H        3.5260530000     1.7714680000     4.2180520000 
 H        2.9973660000    -0.5641860000     2.9530680000 
*
