! RI PBE def2-SVP def2-SVP/J NBO PAL2
% maxcore 2000
% output
    # printlevel mini
    print[ P_Basis ] 0
    print[ P_SCFInfo ] 1
    print[ P_SCFIterInfo ] 1
    print[ P_OrbEn ] 0
    print[ P_Cartesian ] 0
end
*xyz 0 1
 N        1.0000090000     0.0988690000    -0.0809660000 
 C        2.1501790000     0.0592920000    -0.0843470000 
 C        3.5674590000    -0.0440140000    -0.0883880000 
 N        4.3325420000     1.0446040000    -0.0936010000 
 N        5.5660970000     0.5689790000    -0.0960940000 
 C        5.6319090000    -0.7789200000    -0.0927260000 
 C        4.3363880000    -1.2257790000    -0.0876010000 
 H        6.3337960000     1.2187060000    -0.1001510000 
 H        6.5719330000    -1.3067410000    -0.0941890000 
 H        3.9844870000    -2.2432860000    -0.0838360000 
*
