! RI PBE def2-SVP def2-SVP/J NBO PAL2
% maxcore 2000
% output
    # printlevel mini
    print[ P_Basis ] 0
    print[ P_SCFInfo ] 1
    print[ P_SCFIterInfo ] 1
    print[ P_OrbEn ] 0
    print[ P_Cartesian ] 0
end
*xyz 0 1
 N        1.0694280000     0.0972320000     0.0585870000 
 C        2.2180290000     0.0400560000     0.0497860000 
 C        3.6855690000     0.0032220000     0.0470020000 
 C        4.2327890000    -1.2028270000    -0.7350120000 
 C        4.5137390000    -0.5438200000    -2.0555180000 
 N        4.5064550000     0.7252320000    -2.0018840000 
 N        4.2688420000     1.1248470000    -0.7020760000 
 H        4.0243730000     0.0183250000     1.0843330000 
 H        3.5317220000    -2.0348590000    -0.7900530000 
 H        5.1602140000    -1.5663950000    -0.2798850000 
 H        4.7579550000    -1.0549790000    -2.9772060000 
 H        3.7385750000     1.9847560000    -0.6837930000 
*
