! RI PBE def2-SVP def2-SVP/J NBO PAL2
% maxcore 2000
% output
    # printlevel mini
    print[ P_Basis ] 0
    print[ P_SCFInfo ] 1
    print[ P_SCFIterInfo ] 1
    print[ P_OrbEn ] 0
    print[ P_Cartesian ] 0
end
*xyz 0 1
 N        1.0411850000    -0.0580650000     0.0878840000 
 C        2.1910030000    -0.0626630000     0.0709870000 
 C        3.6562010000    -0.0513570000     0.0531800000 
 C        4.2631040000    -1.2440000000    -0.7458040000 
 N        4.6682070000    -0.6940890000    -2.0319280000 
 C        4.5830290000     0.5656920000    -1.9277380000 
 N        4.1846800000     1.0768540000    -0.7044560000 
 H        4.0023090000    -0.0353350000     1.0889320000 
 H        3.5536000000    -2.0622010000    -0.8711640000 
 H        5.1412550000    -1.6345160000    -0.2229190000 
 H        4.8476530000     1.2539920000    -2.7243310000 
 H        3.6821730000     1.9505870000    -0.6789430000 
*
