! RI PBE def2-SVP def2-SVP/J NBO PAL2
% maxcore 2000
% output
    # printlevel mini
    print[ P_Basis ] 0
    print[ P_SCFInfo ] 1
    print[ P_SCFIterInfo ] 1
    print[ P_OrbEn ] 0
    print[ P_Cartesian ] 0
end
*xyz 0 1
 N        0.9948450000    -0.0753580000    -0.0804260000 
 C        2.1462470000    -0.0853760000    -0.0761940000 
 C        3.5647780000    -0.0624080000    -0.0711490000 
 C        4.3615830000     1.0544780000    -0.0708080000 
 N        5.6327850000     0.5738810000    -0.0651500000 
 C        5.5606880000    -0.7836460000    -0.0623500000 
 N        4.3278150000    -1.2024210000    -0.0658470000 
 H        4.1266000000     2.1054040000    -0.0740230000 
 H        6.4722080000     1.1274320000    -0.0633770000 
 H        6.4392700000    -1.4109770000    -0.0577750000 
*
