! RI PBE def2-SVP def2-SVP/J NBO PAL2
% maxcore 2000
% output
    # printlevel mini
    print[ P_Basis ] 0
    print[ P_SCFInfo ] 1
    print[ P_SCFIterInfo ] 1
    print[ P_OrbEn ] 0
    print[ P_Cartesian ] 0
end
*xyz 0 1
 N        1.0546020000    -0.1093510000    -0.6838170000 
 C        2.1559420000    -0.0906710000    -0.3547250000 
 C        3.5442160000    -0.0653020000     0.0651770000 
 C        4.0258680000    -1.3532660000     0.7483160000 
 N        5.0450270000    -0.8159240000     1.6484240000 
 N        4.6941330000     0.4607150000     2.0090930000 
 C        3.8671340000     0.9283720000     1.1659020000 
 H        4.1618430000     0.1608870000    -0.8153170000 
 H        4.4459190000    -2.0755050000     0.0497060000 
 H        3.1949750000    -1.8161120000     1.2963920000 
 H        5.2581660000    -1.3717600000     2.4634540000 
 H        3.5131770000     1.9484970000     1.2148860000 
*
