! RI PBE def2-SVP def2-SVP/J NBO PAL2
% maxcore 2000
% output
    # printlevel mini
    print[ P_Basis ] 0
    print[ P_SCFInfo ] 1
    print[ P_SCFIterInfo ] 1
    print[ P_OrbEn ] 0
    print[ P_Cartesian ] 0
end
*xyz 0 1
 N        2.9063780000    -0.3451500000     1.5948790000 
 C        2.3843790000    -0.1307920000     0.2517190000 
 C        3.0081910000    -1.0918060000    -0.7180800000 
 N        2.7228080000    -2.5098430000    -0.6247690000 
 C        2.1690560000    -1.7504130000    -1.7513710000 
 C        2.6913760000    -2.0768820000    -3.0856530000 
 C        1.9979050000    -1.9599050000    -4.2105560000 
 H        2.5178800000     0.3306100000     2.2407550000 
 H        3.9120620000    -0.2225170000     1.6083190000 
 H        2.5311400000     0.8923760000    -0.1293420000 
 H        1.3031410000    -0.3060450000     0.2802040000 
 H        4.0441220000    -0.8758780000    -0.9768620000 
 H        2.0178270000    -2.6720360000     0.0877290000 
 H        1.1097800000    -1.5029540000    -1.7196530000 
 H        3.7175930000    -2.4359890000    -3.1087000000 
 H        0.9680630000    -1.6160280000    -4.2088710000 
 H        2.4325100000    -2.2043570000    -5.1721510000 
*
