! RI PBE def2-SVP def2-SVP/J NBO PAL2
% maxcore 2000
% output
    # printlevel mini
    print[ P_Basis ] 0
    print[ P_SCFInfo ] 1
    print[ P_SCFIterInfo ] 1
    print[ P_OrbEn ] 0
    print[ P_Cartesian ] 0
end
*xyz 0 1
 N        2.5602280000     0.3677000000     1.5064410000 
 C        2.4440810000     0.0455170000     0.0938440000 
 C        2.9941980000     1.1312540000    -0.8234290000 
 N        2.8416700000     0.7913400000    -2.2294040000 
 C        2.5198240000     2.5872830000    -0.6035220000 
 C        3.9672810000     3.0577820000    -0.8393720000 
 C        4.4353280000     1.6167890000    -0.5659540000 
 H        2.4335360000    -0.4588220000     2.0750090000 
 H        1.8475290000     1.0289760000     1.7866420000 
 H        1.4103810000    -0.1747210000    -0.2252660000 
 H        3.0245820000    -0.8661900000    -0.0912650000 
 H        1.8658090000     0.6226130000    -2.4497800000 
 H        3.3477710000    -0.0615520000    -2.4426350000 
 H        2.2087810000     2.7652520000     0.4280050000 
 H        1.7442340000     2.9497330000    -1.2811960000 
 H        4.3495130000     3.8412020000    -0.1838280000 
 H        4.1296460000     3.3460600000    -1.8774160000 
 H        4.7035160000     1.4666030000     0.4807930000 
 H        5.2088730000     1.1979110000    -1.2131450000 
*
