! RI PBE def2-SVP def2-SVP/J NBO PAL2
% maxcore 2000
% output
    # printlevel mini
    print[ P_Basis ] 0
    print[ P_SCFInfo ] 1
    print[ P_SCFIterInfo ] 1
    print[ P_OrbEn ] 0
    print[ P_Cartesian ] 0
end
*xyz 0 1
 N        3.0593450000     1.3503340000    -0.5101020000 
 C        2.3446820000     0.1835040000    -0.0163990000 
 C        2.9855560000    -1.0978110000    -0.5407520000 
 N        2.2388750000    -2.2809550000    -0.1140670000 
 C        3.1666640000    -3.3279850000     0.3079920000 
 C        4.4543500000    -2.5876950000     0.4787680000 
 C        4.3567140000    -1.3549430000     0.0025960000 
 H        2.7365160000     2.1906410000    -0.0490680000 
 H        2.8932840000     1.4772230000    -1.5013960000 
 H        1.2754270000     0.1637300000    -0.2784380000 
 H        2.4025260000     0.1688360000     1.0753420000 
 H        3.0409630000    -1.0095810000    -1.6430600000 
 H        1.5874110000    -2.6006690000    -0.8137680000 
 H        3.2781980000    -4.1368130000    -0.4332480000 
 H        2.8343880000    -3.8026140000     1.2404010000 
 H        5.3333100000    -3.0299270000     0.9309660000 
 H        5.1287920000    -0.5977750000    -0.0103560000 
*
