! RI PBE def2-SVP def2-SVP/J NBO PAL2
% maxcore 2000
% output
    # printlevel mini
    print[ P_Basis ] 0
    print[ P_SCFInfo ] 1
    print[ P_SCFIterInfo ] 1
    print[ P_OrbEn ] 0
    print[ P_Cartesian ] 0
end
*xyz 0 1
 N        1.1618370000     0.1829800000     0.1629630000 
 C        2.3037450000     0.0935350000     0.0692090000 
 C        3.7349150000     0.0357370000    -0.0530000000 
 N        4.3899420000    -1.0568910000    -0.0167530000 
 C        5.7957190000    -0.6790980000    -0.1743010000 
 C        5.8449000000     0.8674720000    -0.3127960000 
 N        4.4342750000     1.1922780000    -0.2151180000 
 H        6.2062470000    -1.1838610000    -1.0522860000 
 H        6.3609860000    -1.0326070000     0.6915480000 
 H        6.2630630000     1.1883830000    -1.2709660000 
 H        6.4199800000     1.3409140000     0.4878610000 
 H        4.0322910000     2.1092670000    -0.2589700000 
*
