! RI PBE def2-SVP def2-SVP/J NBO PAL2
% maxcore 2000
% output
    # printlevel mini
    print[ P_Basis ] 0
    print[ P_SCFInfo ] 1
    print[ P_SCFIterInfo ] 1
    print[ P_OrbEn ] 0
    print[ P_Cartesian ] 0
end
*xyz 0 1
 N        0.9575480000    -0.0989900000    -0.0657640000 
 C        2.1073940000    -0.0346820000    -0.0702860000 
 C        3.5245750000    -0.0086470000    -0.0745420000 
 N        4.2865910000     1.0612890000    -0.0794830000 
 C        5.5606960000     0.5925030000    -0.0821410000 
 C        5.5718900000    -0.7789760000    -0.0786590000 
 N        4.2649480000    -1.1507650000    -0.0737950000 
 H        6.4070830000     1.2612030000    -0.0863870000 
 H        6.3743690000    -1.4977880000    -0.0792280000 
 H        3.9037060000    -2.0897380000    -0.0703150000 
*
