! RI PBE def2-SVP def2-SVP/J NBO PAL2
% maxcore 2000
% output
    # printlevel mini
    print[ P_Basis ] 0
    print[ P_SCFInfo ] 1
    print[ P_SCFIterInfo ] 1
    print[ P_OrbEn ] 0
    print[ P_Cartesian ] 0
end
*xyz 0 1
 N        1.1829280000    -2.7576790000    -0.0952800000 
 C        2.5662850000    -2.7902580000     0.3572820000 
 C        3.3849150000    -1.7186340000    -0.3383500000 
 C        4.8296470000    -1.6870160000     0.1040110000 
 C        5.7771800000    -2.8447330000    -0.2834650000 
 C        6.8973100000    -1.8068440000    -0.4812760000 
 C        5.8084210000    -0.7243590000    -0.5988840000 
 H        0.6347520000    -3.4667110000     0.3754280000 
 H        1.1353760000    -2.9623250000    -1.0866110000 
 H        3.0560420000    -3.7668220000     0.2108390000 
 H        2.5713450000    -2.5986890000     1.4359140000 
 H        2.9136440000    -0.7458130000    -0.1597430000 
 H        3.3494000000    -1.8854050000    -1.4239420000 
 H        4.8815260000    -1.5269330000     1.1876570000 
 H        5.4744530000    -3.2879190000    -1.2372610000 
 H        5.9388780000    -3.6478730000     0.4377500000 
 H        7.5782170000    -1.9423190000    -1.3229320000 
 H        7.4900050000    -1.6803060000     0.4275590000 
 H        5.5144410000    -0.5689030000    -1.6410830000 
 H        5.9923350000     0.2489220000    -0.1401130000 
*
