! RI PBE def2-SVP def2-SVP/J NBO PAL2
% maxcore 2000
% output
    # printlevel mini
    print[ P_Basis ] 0
    print[ P_SCFInfo ] 1
    print[ P_SCFIterInfo ] 1
    print[ P_OrbEn ] 0
    print[ P_Cartesian ] 0
end
*xyz 0 1
 N        3.5967500000    -2.3407650000     0.4166540000 
 C        3.6601410000    -1.2099320000     0.2175720000 
 C        3.7641110000     0.2107130000    -0.0721620000 
 C        3.8851820000     0.4851140000    -1.5759770000 
 C        4.3776050000     1.9143990000    -1.8720450000 
 C        5.7605890000     1.2788930000    -2.0981820000 
 N        5.0977140000    -0.0264620000    -2.2155720000 
 H        4.6362810000     0.6071190000     0.4580340000 
 H        2.8808290000     0.7169910000     0.3301510000 
 H        2.9610360000     0.1671830000    -2.0683520000 
 H        4.2825640000     2.6454610000    -1.0689630000 
 H        3.9461830000     2.3202150000    -2.7858880000 
 H        6.4225120000     1.3844720000    -1.2291550000 
 H        6.3101820000     1.5874070000    -2.9904990000 
 H        5.5425090000    -0.8301980000    -1.7898180000 
*
