! RI PBE def2-SVP def2-SVP/J NBO PAL2
% maxcore 2000
% output
    # printlevel mini
    print[ P_Basis ] 0
    print[ P_SCFInfo ] 1
    print[ P_SCFIterInfo ] 1
    print[ P_OrbEn ] 0
    print[ P_Cartesian ] 0
end
*xyz 0 1
 N        1.1680300000     1.2765270000    -0.5609970000 
 C        2.5985530000     1.5412940000    -0.5958040000 
 C        3.2958900000     0.8449620000     0.5595520000 
 C        4.7967980000     1.0355680000     0.5751170000 
 N        5.5581950000     0.5224450000    -0.5326030000 
 C        5.3473000000     2.2863020000     1.1922880000 
 C        5.4964890000     0.9690440000     1.8976230000 
 H        0.7021010000     1.7163960000    -1.3445110000 
 H        0.7589830000     1.6670370000     0.2797060000 
 H        2.8550670000     2.6127990000    -0.5737910000 
 H        2.9828360000     1.1453760000    -1.5419130000 
 H        3.0581980000    -0.2246270000     0.5179740000 
 H        2.8794010000     1.2180290000     1.5032270000 
 H        5.2971120000     0.9769940000    -1.3991140000 
 H        5.3959230000    -0.4714630000    -0.6487220000 
 H        4.6461090000     3.0062120000     1.5975740000 
 H        6.2337910000     2.7105390000     0.7390540000 
 H        4.8994810000     0.7904370000     2.7839400000 
 H        6.4812210000     0.5201290000     1.9039110000 
*
