! RI PBE def2-SVP def2-SVP/J NBO PAL2
% maxcore 2000
% output
    # printlevel mini
    print[ P_Basis ] 0
    print[ P_SCFInfo ] 1
    print[ P_SCFIterInfo ] 1
    print[ P_OrbEn ] 0
    print[ P_Cartesian ] 0
end
*xyz 0 1
 N        1.2244180000     2.7383870000    -0.0326050000 
 C        2.6328730000     2.6198150000     0.3226950000 
 C        2.8830130000     1.3115920000     1.0506540000 
 C        4.3466030000     1.0313620000     1.3719490000 
 C        4.9740350000     1.9951180000     2.3449390000 
 C        6.4642160000     2.0677390000     2.4706440000 
 C        5.7074900000     3.2103330000     1.8630660000 
 H        1.0529600000     3.6067490000    -0.5240780000 
 H        0.6559620000     2.7632780000     0.8061010000 
 H        3.0052850000     3.4562220000     0.9318110000 
 H        3.2137280000     2.6262430000    -0.6067230000 
 H        2.4794070000     0.5000700000     0.4371100000 
 H        2.3038710000     1.3057760000     1.9839440000 
 H        4.9324900000     1.0318070000     0.4440680000 
 H        4.4253810000     0.0164290000     1.7781110000 
 H        4.4205960000     2.1185760000     3.2725400000 
 H        7.0523310000     1.4430820000     1.8078930000 
 H        6.8955420000     2.2039380000     3.4545810000 
 H        5.7871900000     3.3519900000     0.7915520000 
 H        5.6225060000     4.1293140000     2.4301580000 
*
