! RI PBE def2-SVP def2-SVP/J NBO PAL2
% maxcore 2000
% output
    # printlevel mini
    print[ P_Basis ] 0
    print[ P_SCFInfo ] 1
    print[ P_SCFIterInfo ] 1
    print[ P_OrbEn ] 0
    print[ P_Cartesian ] 0
end
*xyz 0 1
 N        0.8187130000    -0.2562440000     0.0825970000 
 C        1.9466230000    -0.0900170000    -0.0665760000 
 C        3.3770990000     0.0915660000    -0.2512130000 
 C        4.1474330000    -1.2317200000    -0.2297920000 
 C        5.6235240000    -1.0172290000    -0.4086340000 
 C        6.4735410000    -0.6563440000     0.7726920000 
 C        6.5945160000    -2.0118190000     0.1442110000 
 H        3.7465250000     0.7555460000     0.5360130000 
 H        3.5365250000     0.6094050000    -1.2020800000 
 H        3.7584310000    -1.8875760000    -1.0144420000 
 H        3.9615080000    -1.7390250000     0.7217270000 
 H        5.9035620000    -0.5564800000    -1.3519450000 
 H        5.9884880000    -0.5929820000     1.7403450000 
 H        7.2832560000     0.0485410000     0.6323540000 
 H        6.1905290000    -2.8579510000     0.6875040000 
 H        7.4857270000    -2.2333820000    -0.4290620000 
*
