! RI PBE def2-SVP def2-SVP/J NBO PAL2
% maxcore 2000
% output
    # printlevel mini
    print[ P_Basis ] 0
    print[ P_SCFInfo ] 1
    print[ P_SCFIterInfo ] 1
    print[ P_OrbEn ] 0
    print[ P_Cartesian ] 0
end
*xyz 0 1
 N        1.0388690000    -1.4522000000     0.6203820000 
 C        2.1741100000    -1.6032790000     0.4877070000 
 C        3.5694590000    -1.8164700000     0.3333900000 
 C        4.4017360000    -0.8441380000    -0.0498690000 
 C        5.8445000000    -0.9831790000    -0.2799270000 
 C        6.5486840000    -2.3028720000    -0.2687280000 
 C        6.3364490000    -1.6056010000    -1.5707660000 
 H        3.9236960000    -2.8183190000     0.5510020000 
 H        3.9860240000     0.1444890000    -0.2285260000 
 H        6.4236400000    -0.1275190000     0.0519240000 
 H        5.9694830000    -3.1970250000    -0.0766140000 
 H        7.5484870000    -2.3254470000     0.1455040000 
 H        5.5820560000    -2.0035690000    -2.2376090000 
 H        7.1824180000    -1.1407500000    -2.0608700000 
*
