! RI PBE def2-SVP def2-SVP/J NBO PAL2
% maxcore 2000
% output
    # printlevel mini
    print[ P_Basis ] 0
    print[ P_SCFInfo ] 1
    print[ P_SCFIterInfo ] 1
    print[ P_OrbEn ] 0
    print[ P_Cartesian ] 0
end
*xyz 0 1
 N        1.0242710000     0.0788380000    -0.0307900000 
 C        2.1803130000     0.0770700000    -0.0338840000 
 C        3.5454750000     0.0750470000    -0.0393200000 
 C        4.7533000000     0.0735090000    -0.0455390000 
 C        6.1748610000     0.0716270000    -0.0578160000 
 C        6.9109170000    -0.6604820000    -1.1588060000 
 C        6.9131570000     0.8246960000    -1.1430620000 
 H        6.6352020000     0.0603080000     0.9242090000 
 H        6.3043540000    -1.1624030000    -1.9007670000 
 H        7.8110040000    -1.1863530000    -0.8679640000 
 H        6.3083080000     1.3441280000    -1.8743090000 
 H        7.8148370000     1.3416040000    -0.8412610000 
*
