! RI PBE def2-SVP def2-SVP/J NBO PAL2
% maxcore 2000
% output
    # printlevel mini
    print[ P_Basis ] 0
    print[ P_SCFInfo ] 1
    print[ P_SCFIterInfo ] 1
    print[ P_OrbEn ] 0
    print[ P_Cartesian ] 0
end
*xyz 0 1
 N        1.0980410000    -0.0308680000     0.1925900000 
 C        2.5473870000     0.0813890000     0.0516000000 
 C        3.0640960000     1.4139850000     0.3836250000 
 C        3.4461770000     2.5215190000     0.6515410000 
 C        3.2028090000    -1.0177250000     0.8604450000 
 C        4.6254590000    -0.9392960000     1.3069380000 
 C        3.5188940000    -0.8326370000     2.3131400000 
 H        0.6398090000     0.7039470000    -0.3334180000 
 H        0.8482070000     0.1053370000     1.1660270000 
 H        2.7808570000    -0.1010420000    -1.0048990000 
 H        3.7834700000     3.5038280000     0.8849200000 
 H        2.8341200000    -1.9953080000     0.5701840000 
 H        5.1734670000    -0.0321700000     1.0822700000 
 H        5.2147040000    -1.8471510000     1.2784290000 
 H        3.3455870000     0.1461680000     2.7451240000 
 H        3.3427150000    -1.6649760000     2.9826840000 
*
