! RI PBE def2-SVP def2-SVP/J NBO PAL2
% maxcore 2000
% output
    # printlevel mini
    print[ P_Basis ] 0
    print[ P_SCFInfo ] 1
    print[ P_SCFIterInfo ] 1
    print[ P_OrbEn ] 0
    print[ P_Cartesian ] 0
end
*xyz 0 1
 N        1.6059880000     0.3846070000    -0.6280270000 
 C        2.9561110000    -0.0109790000    -0.2476550000 
 C        3.2517050000     0.4324970000     1.1461660000 
 C        4.2991770000     1.1745070000     1.4887160000 
 C        4.6604500000     1.6098410000     2.8530310000 
 C        4.0968860000     0.9647470000     4.0783090000 
 C        5.5331740000     0.7385740000     3.7212040000 
 H        1.3728490000     0.0296120000    -1.5467110000 
 H        1.5367420000     1.3942120000    -0.6663710000 
 H        3.7453600000     0.3611820000    -0.9193030000 
 H        2.9964380000    -1.1063070000    -0.2918460000 
 H        2.5294720000     0.1219290000     1.8977520000 
 H        4.9836850000     1.4945790000     0.7023490000 
 H        4.8701590000     2.6728580000     2.9365110000 
 H        3.4133760000     0.1353810000     3.9499610000 
 H        3.8727120000     1.5998000000     4.9261440000 
 H        5.8018590000    -0.2337620000     3.3268060000 
 H        6.2994480000     1.2157210000     4.3197650000 
*
