! RI PBE def2-SVP def2-SVP/J NBO PAL2
% maxcore 2000
% output
    # printlevel mini
    print[ P_Basis ] 0
    print[ P_SCFInfo ] 1
    print[ P_SCFIterInfo ] 1
    print[ P_OrbEn ] 0
    print[ P_Cartesian ] 0
end
*xyz 0 1
 N        1.0714890000     0.1457530000    -0.0888670000 
 C        2.5162170000    -0.0150040000     0.0442180000 
 C        3.0329430000     0.7000660000     1.2013180000 
 C        3.4644890000     1.3115930000     2.1445490000 
 C        3.9750800000     2.0254850000     3.2756920000 
 C        5.2752990000     2.7838590000     3.1630730000 
 C        3.9930860000     3.5346940000     3.2707100000 
 H        0.7571690000    -0.2784880000    -0.9532450000 
 H        0.8390190000     1.1302620000    -0.1332720000 
 H        3.0853210000     0.3164780000    -0.8392160000 
 H        2.7297160000    -1.0830250000     0.1636930000 
 H        3.7816770000     1.5582080000     4.2355950000 
 H        5.7716630000     2.7594470000     2.2020130000 
 H        5.9357150000     2.7614890000     4.0206870000 
 H        3.6136270000     4.0236610000     2.3832710000 
 H        3.7624910000     4.0342110000     4.2031810000 
*
