! RI PBE def2-SVP def2-SVP/J NBO PAL2
% maxcore 2000
% output
    # printlevel mini
    print[ P_Basis ] 0
    print[ P_SCFInfo ] 1
    print[ P_SCFIterInfo ] 1
    print[ P_OrbEn ] 0
    print[ P_Cartesian ] 0
end
*xyz 0 1
 N        0.9258970000     0.0039070000     0.1280810000 
 C        2.0751320000    -0.0268440000     0.1269760000 
 C        3.5284540000    -0.0461060000     0.1502050000 
 C        4.1091810000     0.9308920000     1.1780020000 
 C        5.6089060000     0.8847330000     1.1982130000 
 C        6.3494810000     1.1656960000     2.4399220000 
 N        6.3051260000    -0.1911290000     1.8975380000 
 H        3.8923200000     0.1974190000    -0.8525700000 
 H        3.8567020000    -1.0677430000     0.3635850000 
 H        3.7174660000     0.6907900000     2.1717180000 
 H        3.7688930000     1.9436740000     0.9422770000 
 H        6.0849070000     1.1527580000     0.2570400000 
 H        5.7685560000     1.3881790000     3.3299890000 
 H        7.3205050000     1.6461450000     2.3979180000 
 H        5.6433830000    -0.7516900000     2.4262170000 
*
