! RI PBE def2-SVP def2-SVP/J NBO PAL2
% maxcore 2000
% output
    # printlevel mini
    print[ P_Basis ] 0
    print[ P_SCFInfo ] 1
    print[ P_SCFIterInfo ] 1
    print[ P_OrbEn ] 0
    print[ P_Cartesian ] 0
end
*xyz 0 1
 N        0.6460260000     0.0073920000    -0.5233420000 
 C        2.0670730000    -0.2388380000    -0.3866110000 
 C        2.4798910000    -1.6684760000    -0.1643540000 
 C        1.6654640000    -2.6963550000     0.0241130000 
 C        2.8333160000     0.3402990000    -1.5672680000 
 C        2.2414180000     0.4061980000    -2.9132550000 
 N        2.4326850000     1.6200900000    -2.1194780000 
 H        0.1848410000    -0.0115110000     0.3755260000 
 H        0.2106340000    -0.7004660000    -1.1022190000 
 H        2.4004440000     0.3337470000     0.4914310000 
 H        3.5547780000    -1.8411400000    -0.1649830000 
 H        0.5865660000    -2.5804300000     0.0445630000 
 H        2.0495440000    -3.6985810000     0.1713410000 
 H        3.9098140000     0.2084520000    -1.4893100000 
 H        1.2268480000     0.0449610000    -3.0463410000 
 H        2.8753350000     0.3170300000    -3.7886440000 
 H        1.5346330000     1.8578080000    -1.7016590000 
*
