! RI PBE def2-SVP def2-SVP/J NBO PAL2
% maxcore 2000
% output
    # printlevel mini
    print[ P_Basis ] 0
    print[ P_SCFInfo ] 1
    print[ P_SCFIterInfo ] 1
    print[ P_OrbEn ] 0
    print[ P_Cartesian ] 0
end
*xyz 0 1
 N        0.9014220000     0.0045580000     0.0703550000 
 C        2.3498180000    -0.0257900000    -0.1069710000 
 C        2.9904290000     1.2821650000     0.0678060000 
 C        3.4772810000     2.3688410000     0.2317390000 
 C        2.9326920000    -1.0713940000     0.8228830000 
 C        4.3502720000    -1.0667800000     1.2130240000 
 N        3.3121320000    -0.7361980000     2.1890790000 
 H        0.4897000000     0.7034800000    -0.5361220000 
 H        0.6795640000     0.2719500000     1.0229440000 
 H        2.5412120000    -0.3581360000    -1.1347900000 
 H        3.9058660000     3.3347250000     0.3626960000 
 H        2.4151700000    -2.0215080000     0.7298290000 
 H        4.9721280000    -0.2592150000     0.8398670000 
 H        4.8615870000    -2.0076810000     1.3829810000 
 H        3.2902360000     0.2736950000     2.3097890000 
*
