! RI PBE def2-SVP def2-SVP/J NBO PAL2
% maxcore 2000
% output
    # printlevel mini
    print[ P_Basis ] 0
    print[ P_SCFInfo ] 1
    print[ P_SCFIterInfo ] 1
    print[ P_OrbEn ] 0
    print[ P_Cartesian ] 0
end
*xyz 0 1
 N        1.6985240000     0.3130590000    -1.1183970000 
 C        2.4803390000     0.0055360000     0.0719950000 
 C        3.0667640000     1.2541730000     0.6421920000 
 C        4.3635360000     1.4432820000     0.8590590000 
 C        4.9881710000     2.6635900000     1.4072750000 
 C        5.3047900000     3.8103010000     0.5209780000 
 N        4.2651160000     3.9166520000     1.5383520000 
 H        1.2145360000    -0.5101230000    -1.4535870000 
 H        2.3058900000     0.6320420000    -1.8632350000 
 H        3.2833580000    -0.7299290000    -0.0884900000 
 H        1.7936110000    -0.4312910000     0.8067370000 
 H        2.3452090000     2.0356670000     0.8730220000 
 H        5.0557980000     0.6326520000     0.6333080000 
 H        5.6788280000     2.4805990000     2.2281460000 
 H        5.0035810000     3.7252180000    -0.5183210000 
 H        6.1935000000     4.4057940000     0.7013880000 
 H        3.3510280000     3.8406770000     1.1049700000 
*
