! RI PBE def2-SVP def2-SVP/J NBO PAL2
% maxcore 2000
% output
    # printlevel mini
    print[ P_Basis ] 0
    print[ P_SCFInfo ] 1
    print[ P_SCFIterInfo ] 1
    print[ P_OrbEn ] 0
    print[ P_Cartesian ] 0
end
*xyz 0 1
 N        1.2485790000    -0.4688450000    -0.2297690000 
 C        2.6600520000    -0.1553710000    -0.1492900000 
 C        3.1125190000     0.8459890000    -1.1766150000 
 C        2.2727000000     1.4598000000    -2.0035590000 
 C        4.5796650000     1.0799590000    -1.1764500000 
 C        5.1827580000     2.3329540000    -1.6558150000 
 N        5.1583440000     2.0413980000    -0.2232760000 
 H        0.9706050000    -1.0519520000     0.5481060000 
 H        1.0476700000    -0.9833890000    -1.0788020000 
 H        3.3197910000    -1.0359180000    -0.2373790000 
 H        2.8646070000     0.2576230000     0.8461440000 
 H        1.2050540000     1.2906270000    -1.9330080000 
 H        2.6280160000     2.1510890000    -2.7580450000 
 H        5.1798420000     0.1749040000    -1.2519250000 
 H        4.5234510000     3.1065040000    -2.0336070000 
 H        6.1676490000     2.3125230000    -2.1095740000 
 H        4.4016990000     2.5682060000     0.2043530000 
*
