! RI PBE def2-SVP def2-SVP/J NBO PAL2
% maxcore 2000
% output
    # printlevel mini
    print[ P_Basis ] 0
    print[ P_SCFInfo ] 1
    print[ P_SCFIterInfo ] 1
    print[ P_OrbEn ] 0
    print[ P_Cartesian ] 0
end
*xyz 0 1
 N        1.0433310000     0.4387080000    -0.7705340000 
 C        2.3846200000    -0.1253480000    -0.6926780000 
 C        2.4709260000    -1.4660180000     0.0512250000 
 C        2.0366660000    -1.3454150000     1.4723190000 
 C        0.9594480000    -1.9133140000     1.9983750000 
 C        2.9475170000    -0.1627260000    -2.0826710000 
 C        3.5046860000    -1.1984160000    -2.6939400000 
 H        0.6251280000     0.4671970000     0.1526540000 
 H        0.4548530000    -0.1581920000    -1.3417030000 
 H        2.9892770000     0.6014390000    -0.1296380000 
 H        3.5089430000    -1.8182910000     0.0231550000 
 H        1.8577790000    -2.2092770000    -0.4694730000 
 H        2.6604060000    -0.7176790000     2.1082320000 
 H        0.3088810000    -2.5494310000     1.4056060000 
 H        0.6955070000    -1.7754500000     3.0406800000 
 H        2.8474680000     0.7806160000    -2.6147870000 
 H        3.6186820000    -2.1660460000    -2.2179410000 
 H        3.8752730000    -1.1115560000    -3.7087800000 
*
