! RI PBE def2-SVP def2-SVP/J NBO PAL2
% maxcore 2000
% output
    # printlevel mini
    print[ P_Basis ] 0
    print[ P_SCFInfo ] 1
    print[ P_SCFIterInfo ] 1
    print[ P_OrbEn ] 0
    print[ P_Cartesian ] 0
end
*xyz 0 1
 N        0.9432510000     0.1687680000    -0.1673940000 
 C        2.3579810000    -0.0237660000     0.1125230000 
 C        2.7003370000    -0.2489890000     1.6053360000 
 C        2.3310600000     0.9286710000     2.4404540000 
 C        1.3719340000     0.9442260000     3.3567700000 
 C        2.8752370000    -1.1305150000    -0.6852720000 
 C        3.3026290000    -2.0629990000    -1.3081990000 
 H        0.5595640000     0.8381630000     0.4911600000 
 H        0.4447120000    -0.7037230000    -0.0361490000 
 H        2.8794840000     0.8866170000    -0.2116930000 
 H        3.7757620000    -0.4416750000     1.6845570000 
 H        2.1793840000    -1.1464560000     1.9518530000 
 H        2.8924040000     1.8432450000     2.2521570000 
 H        0.7903060000     0.0552420000     3.5814940000 
 H        1.1441890000     1.8378840000     3.9264690000 
 H        3.6811770000    -2.8816920000    -1.8731680000 
*
