! RI PBE def2-SVP def2-SVP/J NBO PAL2
% maxcore 2000
% output
    # printlevel mini
    print[ P_Basis ] 0
    print[ P_SCFInfo ] 1
    print[ P_SCFIterInfo ] 1
    print[ P_OrbEn ] 0
    print[ P_Cartesian ] 0
end
*xyz 0 1
 N        1.0250450000     0.0468250000     0.2895740000 
 C        2.4113900000     0.0962690000    -0.1421430000 
 C        2.8134980000    -1.0053960000    -1.1389960000 
 C        2.5517530000    -2.3341710000    -0.6165200000 
 C        2.3198610000    -3.4187820000    -0.1554340000 
 C        2.6999290000     1.4782580000    -0.6471690000 
 C        3.2626420000     1.8084230000    -1.8009230000 
 H        0.8124820000    -0.8688570000     0.6688100000 
 H        0.4071750000     0.1991160000    -0.4998400000 
 H        3.0197950000    -0.0509880000     0.7605360000 
 H        3.8778190000    -0.9176530000    -1.3819860000 
 H        2.2593890000    -0.8670620000    -2.0745590000 
 H        2.1257660000    -4.3872560000     0.2409380000 
 H        2.3803710000     2.2608940000     0.0366800000 
 H        3.5916050000     1.0711290000    -2.5251310000 
 H        3.4213800000     2.8474520000    -2.0648480000 
*
