! RI PBE def2-SVP def2-SVP/J NBO PAL2
% maxcore 2000
% output
    # printlevel mini
    print[ P_Basis ] 0
    print[ P_SCFInfo ] 1
    print[ P_SCFIterInfo ] 1
    print[ P_OrbEn ] 0
    print[ P_Cartesian ] 0
end
*xyz 0 1
 N        1.6547080000    -1.0818190000    -0.2275720000 
 C        2.7051890000    -0.1461810000     0.1526340000 
 C        2.9516530000     0.8301890000    -0.9486780000 
 C        4.1339000000     1.0503710000    -1.5110630000 
 C        4.3962150000     2.0389960000    -2.6058730000 
 C        5.3442930000     3.1173690000    -2.1774480000 
 C        6.5266540000     3.3529300000    -2.7282510000 
 H        1.4300660000    -1.7015100000     0.5404190000 
 H        1.9639440000    -1.6576480000    -1.0010800000 
 H        3.6579760000    -0.6210480000     0.4329780000 
 H        2.3510450000     0.3968990000     1.0372260000 
 H        2.0740160000     1.3687030000    -1.3033380000 
 H        5.0013470000     0.4971010000    -1.1521090000 
 H        3.4451760000     2.4866420000    -2.9158920000 
 H        4.8141470000     1.5263890000    -3.4798550000 
 H        5.0152850000     3.7276510000    -1.3384610000 
 H        6.8900190000     2.7607160000    -3.5629300000 
 H        7.1724650000     4.1463400000    -2.3701190000 
*
