! RI PBE def2-SVP def2-SVP/J NBO PAL2
% maxcore 2000
% output
    # printlevel mini
    print[ P_Basis ] 0
    print[ P_SCFInfo ] 1
    print[ P_SCFIterInfo ] 1
    print[ P_OrbEn ] 0
    print[ P_Cartesian ] 0
end
*xyz 0 1
 N        1.7164470000    -1.1679930000    -0.4669080000 
 C        2.6159570000    -0.1966410000     0.1406880000 
 C        3.0273570000     0.8264250000    -0.8647010000 
 C        4.2846010000     1.1261960000    -1.1598620000 
 C        4.6928380000     2.1548250000    -2.1750740000 
 C        5.5625530000     3.1818880000    -1.6180450000 
 C        6.2827010000     4.0177770000    -1.1453630000 
 H        1.3615980000    -1.8128470000     0.2276060000 
 H        2.2090400000    -1.7137150000    -1.1633230000 
 H        3.5154180000    -0.6332830000     0.6008760000 
 H        2.0613030000     0.3025620000     0.9442150000 
 H        2.2122370000     1.3321940000    -1.3796670000 
 H        5.0965820000     0.6159530000    -0.6457300000 
 H        3.8034440000     2.6235880000    -2.6072870000 
 H        5.2229960000     1.6668510000    -3.0029850000 
 H        6.9179290000     4.7627090000    -0.7283410000 
*
