! RI PBE def2-SVP def2-SVP/J NBO PAL2
% maxcore 2000
% output
    # printlevel mini
    print[ P_Basis ] 0
    print[ P_SCFInfo ] 1
    print[ P_SCFIterInfo ] 1
    print[ P_OrbEn ] 0
    print[ P_Cartesian ] 0
end
*xyz 0 1
 N        0.5804250000     0.0330180000     0.0798870000 
 C        2.0224250000     0.1226720000    -0.0470740000 
 C        2.5551900000     1.5109240000     0.1607210000 
 C        1.8014570000     2.5164430000     0.5902710000 
 C        4.0163080000     1.6884790000    -0.1667290000 
 C        4.2909170000     1.6687930000    -1.6400060000 
 C        5.0937760000     0.8140910000    -2.2581120000 
 H        0.2821990000    -0.9319550000     0.0264030000 
 H        0.1311990000     0.5273980000    -0.6818000000 
 H        2.4098300000    -0.2437180000    -1.0116120000 
 H        2.4720910000    -0.5267760000     0.7156550000 
 H        0.7551790000     2.3683670000     0.8280650000 
 H        2.2201900000     3.5065590000     0.7350350000 
 H        4.6067810000     0.9018180000     0.3179440000 
 H        4.3510380000     2.6451500000     0.2474000000 
 H        3.7736960000     2.4300420000    -2.2214470000 
 H        5.6245250000     0.0395690000    -1.7123600000 
 H        5.2549930000     0.8596170000    -3.3290410000 
*
