! RI PBE def2-SVP def2-SVP/J NBO PAL2
% maxcore 2000
% output
    # printlevel mini
    print[ P_Basis ] 0
    print[ P_SCFInfo ] 1
    print[ P_SCFIterInfo ] 1
    print[ P_OrbEn ] 0
    print[ P_Cartesian ] 0
end
*xyz 0 1
 N        3.1415790000    -0.0116040000     1.1014600000 
 C        2.4733170000    -0.0600490000    -0.1927420000 
 C        2.7960460000     1.1672810000    -0.9942490000 
 C        1.8591540000     2.0212290000    -1.3866240000 
 C        4.2561120000     1.3864760000    -1.3088910000 
 C        4.7998130000     0.3652080000    -2.1931600000 
 C        5.2366680000    -0.4815940000    -2.9237590000 
 H        3.1097260000    -0.9123810000     1.5596770000 
 H        2.6880690000     0.6582180000     1.7101430000 
 H        1.3815890000    -0.1695540000    -0.1329860000 
 H        2.8573660000    -0.9343570000    -0.7294630000 
 H        0.8146440000     1.8589970000    -1.1420960000 
 H        2.0985510000     2.9030730000    -1.9710100000 
 H        4.8190620000     1.3673970000    -0.3690180000 
 H        4.3968060000     2.3717810000    -1.7613330000 
 H        5.6296990000    -1.2279010000    -3.5724380000 
*
