! RI PBE def2-SVP def2-SVP/J NBO PAL2
% maxcore 2000
% output
    # printlevel mini
    print[ P_Basis ] 0
    print[ P_SCFInfo ] 1
    print[ P_SCFIterInfo ] 1
    print[ P_OrbEn ] 0
    print[ P_Cartesian ] 0
end
*xyz 0 1
 N        2.9014490000     1.4079690000     0.1885800000 
 C        2.4967250000     0.0310740000    -0.0113540000 
 C        3.0653640000    -0.8612120000     1.1035190000 
 C        2.5783750000    -2.2767800000     0.9634230000 
 C        1.7706880000    -2.8743130000     1.8254860000 
 C        4.5249510000    -0.8155520000     1.0935310000 
 C        5.7248760000    -0.7750140000     1.0538800000 
 H        2.4993390000     2.0046720000    -0.5225230000 
 H        3.9095370000     1.4868680000     0.1161350000 
 H        2.7981570000    -0.3969850000    -0.9802000000 
 H        1.4065360000    -0.0271840000     0.0460370000 
 H        2.7160120000    -0.4521170000     2.0581340000 
 H        2.9239030000    -2.8096650000     0.0806340000 
 H        1.4208530000    -2.3686310000     2.7201680000 
 H        1.4328950000    -3.8923390000     1.6708140000 
 H        6.7886990000    -0.7479310000     1.0355080000 
*
