! RI PBE def2-SVP def2-SVP/J NBO PAL2
% maxcore 2000
% output
    # printlevel mini
    print[ P_Basis ] 0
    print[ P_SCFInfo ] 1
    print[ P_SCFIterInfo ] 1
    print[ P_OrbEn ] 0
    print[ P_Cartesian ] 0
end
*xyz 0 1
 N        2.7594470000     0.7787860000     1.1534880000 
 C        2.3774980000     0.0802150000    -0.0546670000 
 C        2.9334670000    -1.3568360000    -0.0210310000 
 C        2.4361030000    -2.1366060000    -1.1507820000 
 C        2.0001170000    -2.7551990000    -2.0809460000 
 C        4.3949480000    -1.3488760000     0.0257100000 
 C        5.5927030000    -1.3036980000     0.0755770000 
 H        2.3182010000     1.6878020000     1.1948310000 
 H        3.7620700000     0.9248130000     1.1738000000 
 H        2.7124020000     0.5504610000    -0.9898640000 
 H        1.2882350000     0.0081350000    -0.0933170000 
 H        2.5711480000    -1.8138180000     0.9088010000 
 H        1.6207500000    -3.3119400000    -2.9048750000 
 H        6.6561900000    -1.2830570000     0.1145770000 
*
