! RI PBE def2-SVP def2-SVP/J NBO PAL2
% maxcore 2000
% output
    # printlevel mini
    print[ P_Basis ] 0
    print[ P_SCFInfo ] 1
    print[ P_SCFIterInfo ] 1
    print[ P_OrbEn ] 0
    print[ P_Cartesian ] 0
end
*xyz 0 1
 N        0.9902430000    -0.2390950000    -0.2162940000 
 C        2.2934710000     0.2929090000     0.1678860000 
 C        2.8861740000     1.0764670000    -0.9065930000 
 C        3.3808270000     1.7012040000    -1.8069540000 
 C        3.9838460000     2.4532260000    -2.8992600000 
 C        4.8842480000     1.6154680000    -3.7609490000 
 C        4.7641420000     1.4993690000    -5.0741630000 
 H        0.6411440000    -0.8502970000     0.5118860000 
 H        1.0813030000    -0.7936300000    -1.0586560000 
 H        3.0215930000    -0.4786090000     0.4653110000 
 H        2.1540240000     0.9383640000     1.0420160000 
 H        4.5610400000     3.2839500000    -2.4725130000 
 H        3.1992120000     2.9058190000    -3.5139750000 
 H        5.6765580000     1.0849970000    -3.2388270000 
 H        3.9757160000     2.0088820000    -5.6197030000 
 H        5.4483600000     0.8898740000    -5.6527110000 
*
