! RI PBE def2-SVP def2-SVP/J NBO PAL2
% maxcore 2000
% output
    # printlevel mini
    print[ P_Basis ] 0
    print[ P_SCFInfo ] 1
    print[ P_SCFIterInfo ] 1
    print[ P_OrbEn ] 0
    print[ P_Cartesian ] 0
end
*xyz 0 1
 N        1.0555590000     0.1078380000    -0.2229020000 
 C        2.4803180000    -0.0395590000     0.0519710000 
 C        3.0114740000    -1.2646810000    -0.5285750000 
 C        3.4520140000    -2.2828120000    -0.9879870000 
 C        3.9760650000    -3.5192640000    -1.5577870000 
 C        5.2541390000    -3.3520730000    -2.2410380000 
 C        6.3053440000    -3.2309000000    -2.8043160000 
 H        0.7024850000     0.9380530000     0.2370210000 
 H        0.5479820000    -0.6837780000     0.1525500000 
 H        2.7340840000    -0.0330030000     1.1238560000 
 H        3.0042250000     0.8122070000    -0.3949220000 
 H        3.2449090000    -3.9291870000    -2.2645120000 
 H        4.0897760000    -4.2713160000    -0.7681880000 
 H        7.2378360000    -3.1164170000    -3.3041690000 
*
