! RI PBE def2-SVP def2-SVP/J NBO PAL2
% maxcore 2000
% output
    # printlevel mini
    print[ P_Basis ] 0
    print[ P_SCFInfo ] 1
    print[ P_SCFIterInfo ] 1
    print[ P_OrbEn ] 0
    print[ P_Cartesian ] 0
end
*xyz 0 1
 N        0.6491900000    -0.3772270000     0.0386760000 
 C        2.0861240000    -0.3283520000    -0.1799090000 
 C        2.6750280000     0.9330990000     0.4411120000 
 C        4.1600300000     0.9814660000     0.3486460000 
 C        4.8654600000     1.9197680000    -0.2872360000 
 C        6.3109970000     1.9380230000    -0.3622960000 
 C        7.0215700000     2.8732060000    -0.9926490000 
 H        0.2599800000    -1.2342530000    -0.3334190000 
 H        0.1933150000     0.3859470000    -0.4476020000 
 H        2.3814620000    -0.3713720000    -1.2397480000 
 H        2.5309580000    -1.2038910000     0.3045860000 
 H        2.3597520000     0.9613780000     1.4910440000 
 H        2.2448010000     1.8165890000    -0.0438790000 
 H        4.7011900000     0.1727590000     0.8402340000 
 H        4.3398250000     2.7342510000    -0.7840700000 
 H        6.8299090000     1.1223240000     0.1374580000 
 H        6.5380610000     3.7014490000    -1.5009190000 
 H        8.1037680000     2.8418480000    -1.0204190000 
*
