! RI PBE def2-SVP def2-SVP/J NBO PAL2
% maxcore 2000
% output
    # printlevel mini
    print[ P_Basis ] 0
    print[ P_SCFInfo ] 1
    print[ P_SCFIterInfo ] 1
    print[ P_OrbEn ] 0
    print[ P_Cartesian ] 0
end
*xyz 0 1
 N        0.6317440000     0.8201970000     0.6639360000 
 C        1.7255580000     0.1192740000     0.0080480000 
 C        3.0629730000     0.6939800000     0.4645890000 
 C        4.2438540000     0.0197760000    -0.1732490000 
 C        4.9422960000    -0.9126270000     0.4828810000 
 C        4.6328080000     0.3729240000    -1.5366440000 
 C        4.0801470000     1.3144280000    -2.2998580000 
 H       -0.2565450000     0.3984420000     0.4239730000 
 H        0.5916560000     1.7833480000     0.3515880000 
 H        1.6743500000     0.1380660000    -1.0901860000 
 H        1.6807450000    -0.9324870000     0.3053570000 
 H        3.1222570000     0.5979790000     1.5508410000 
 H        3.0841150000     1.7677310000     0.2437590000 
 H        4.6976430000    -1.1929620000     1.5012320000 
 H        5.7814290000    -1.4190090000     0.0180870000 
 H        5.4665030000    -0.1983620000    -1.9391640000 
 H        3.2489620000     1.9223500000    -1.9606230000 
 H        4.4499060000     1.5108430000    -3.2988660000 
*
