! RI PBE def2-SVP def2-SVP/J NBO PAL2
% maxcore 2000
% output
    # printlevel mini
    print[ P_Basis ] 0
    print[ P_SCFInfo ] 1
    print[ P_SCFIterInfo ] 1
    print[ P_OrbEn ] 0
    print[ P_Cartesian ] 0
end
*xyz 0 1
 N        0.9880120000    -0.2486820000    -0.0202210000 
 C        2.4200590000    -0.0019020000     0.0498320000 
 C        3.1649040000    -1.0261070000    -0.7962270000 
 C        4.6582380000    -0.8484220000    -0.7598390000 
 C        5.3676900000    -0.4847430000    -1.8311530000 
 C        5.3025480000    -1.0843720000     0.4912440000 
 C        5.8112790000    -1.3009660000     1.5602050000 
 H        0.4782740000     0.4769370000     0.4676230000 
 H        0.7593040000    -1.1236640000     0.4369830000 
 H        2.8282450000    -0.0155420000     1.0710590000 
 H        2.6135140000     0.9960670000    -0.3551230000 
 H        2.8127500000    -0.9611090000    -1.8279690000 
 H        2.9188370000    -2.0304670000    -0.4303980000 
 H        4.8798350000    -0.3105030000    -2.7832690000 
 H        6.4418280000    -0.3576990000    -1.7816630000 
 H        6.2751820000    -1.4884070000     2.4994960000 
*
