! RI PBE def2-SVP def2-SVP/J NBO PAL2
% maxcore 2000
% output
    # printlevel mini
    print[ P_Basis ] 0
    print[ P_SCFInfo ] 1
    print[ P_SCFIterInfo ] 1
    print[ P_OrbEn ] 0
    print[ P_Cartesian ] 0
end
*xyz 0 1
 N        1.0559770000     0.0364540000     0.0249340000 
 C        2.4981650000     0.1006760000    -0.1355420000 
 C        3.0291810000    -1.2616350000    -0.5767700000 
 C        4.4652680000    -1.2699020000    -0.7851880000 
 C        5.6591810000    -1.2430370000    -0.9561280000 
 C        7.0626740000    -1.2677060000    -1.1540530000 
 C        7.8190580000    -0.1931710000    -1.3783310000 
 H        0.6730910000     0.9584270000     0.1887190000 
 H        0.8104860000    -0.5309930000     0.8274840000 
 H        3.0425360000     0.4165950000     0.7662390000 
 H        2.7253360000     0.8326530000    -0.9147620000 
 H        2.5125840000    -1.5566590000    -1.4961740000 
 H        2.7684730000    -2.0152840000     0.1766120000 
 H        7.5311800000    -2.2485980000    -1.1141680000 
 H        7.3906390000     0.8008780000    -1.4259160000 
 H        8.8885120000    -0.2886180000    -1.5195650000 
*
