! RI PBE def2-SVP def2-SVP/J NBO PAL2
% maxcore 2000
% output
    # printlevel mini
    print[ P_Basis ] 0
    print[ P_SCFInfo ] 1
    print[ P_SCFIterInfo ] 1
    print[ P_OrbEn ] 0
    print[ P_Cartesian ] 0
end
*xyz 0 1
 N        1.0559970000    -0.0199930000    -0.0075880000 
 C        2.5061070000    -0.0135280000    -0.0713230000 
 C        3.0735790000     0.4957510000     1.2542000000 
 C        4.5210720000     0.5062980000     1.2817050000 
 C        5.7294540000     0.5037620000     1.2820480000 
 C        7.0928690000     0.5034590000     1.2899470000 
 C        8.2987300000     0.5025680000     1.2966980000 
 H        0.6647450000    -0.4975410000    -0.8089070000 
 H        0.6912190000     0.9249680000    -0.0196870000 
 H        2.9240520000     0.5896710000    -0.8900210000 
 H        2.8491990000    -1.0392970000    -0.2263400000 
 H        2.6874790000    -0.1300360000     2.0654340000 
 H        2.7036810000     1.5110300000     1.4432840000 
 H        9.3627070000     0.5020370000     1.3036300000 
*
