! RI PBE def2-SVP def2-SVP/J NBO PAL2
% maxcore 2000
% output
    # printlevel mini
    print[ P_Basis ] 0
    print[ P_SCFInfo ] 1
    print[ P_SCFIterInfo ] 1
    print[ P_OrbEn ] 0
    print[ P_Cartesian ] 0
end
*xyz 0 1
 N        0.9627260000     0.1468450000     0.1939850000 
 C        2.4094840000    -0.0031230000     0.2456400000 
 C        2.8175600000    -1.4152340000    -0.1280850000 
 C        4.3229080000    -1.6202810000    -0.1345620000 
 C        4.7300350000    -3.0456350000    -0.4988870000 
 C        6.2093860000    -3.2283350000    -0.5638190000 
 C        6.9124440000    -4.0706230000     0.1803620000 
 H        0.6930210000     1.0976460000     0.4125280000 
 H        0.5237690000    -0.4479990000     0.8870350000 
 H        2.8463320000     0.2476850000     1.2263820000 
 H        2.8444260000     0.6977420000    -0.4753050000 
 H        2.3985560000    -1.6507920000    -1.1121770000 
 H        2.3577280000    -2.1200270000     0.5775320000 
 H        4.7388800000    -1.3707860000     0.8482020000 
 H        4.7827400000    -0.9218090000    -0.8446500000 
 H        4.2927640000    -3.2939650000    -1.4749030000 
 H        4.3035600000    -3.7506800000     0.2226190000 
 H        6.7344100000    -2.5988310000    -1.2817870000 
 H        6.4332480000    -4.7165030000     0.9102820000 
 H        7.9894340000    -4.1500040000     0.0870970000 
*
