! RI PBE def2-SVP def2-SVP/J NBO PAL2
% maxcore 2000
% output
    # printlevel mini
    print[ P_Basis ] 0
    print[ P_SCFInfo ] 1
    print[ P_SCFIterInfo ] 1
    print[ P_OrbEn ] 0
    print[ P_Cartesian ] 0
end
*xyz 0 1
 N        1.0013070000    -0.0462610000    -0.0309040000 
 C        2.4552990000    -0.0609660000     0.0116240000 
 C        3.0174130000    -0.8741200000    -1.1391960000 
 C        4.5356950000    -0.8871270000    -1.1694690000 
 C        5.0858890000    -1.7127620000    -2.3327630000 
 C        6.5379070000    -1.7375790000    -2.3823020000 
 C        7.7384420000    -1.7457650000    -2.4060170000 
 H        0.6267800000     0.5341660000     0.7088040000 
 H        0.6355720000    -0.9797010000     0.1159770000 
 H        2.8679630000    -0.4474830000     0.9581640000 
 H        2.8038980000     0.9734370000    -0.0786150000 
 H        2.6210270000    -0.4696740000    -2.0766500000 
 H        2.6448510000    -1.9045770000    -1.0664980000 
 H        4.9297800000    -1.2900680000    -0.2310320000 
 H        4.9169240000     0.1359580000    -1.2493370000 
 H        4.7033010000    -1.3148670000    -3.2794990000 
 H        4.7140980000    -2.7414300000    -2.2623140000 
 H        8.8021420000    -1.7556730000    -2.4318620000 
*
