! RI PBE def2-SVP def2-SVP/J NBO PAL2
% maxcore 2000
% output
    # printlevel mini
    print[ P_Basis ] 0
    print[ P_SCFInfo ] 1
    print[ P_SCFIterInfo ] 1
    print[ P_OrbEn ] 0
    print[ P_Cartesian ] 0
end
*xyz 0 1
 N        1.0488840000    -0.0064860000    -0.1292220000 
 C        2.1934360000    -0.0550430000    -0.0583030000 
 C        3.6512550000    -0.1017200000     0.0098510000 
 C        4.1407110000    -0.8741730000     1.1378070000 
 C        4.5626940000    -1.5102530000     2.0666200000 
 C        5.0460530000    -2.2333990000     3.1225860000 
 N        5.4573890000    -2.8428630000     4.0125460000 
 H        4.0326420000     0.9238710000     0.0694560000 
 H        4.0326370000    -0.5280340000    -0.9248410000 
*
