! RI PBE def2-SVP def2-SVP/J NBO PAL2
% maxcore 2000
% output
    # printlevel mini
    print[ P_Basis ] 0
    print[ P_SCFInfo ] 1
    print[ P_SCFIterInfo ] 1
    print[ P_OrbEn ] 0
    print[ P_Cartesian ] 0
end
*xyz 0 1
 N        1.0212840000     0.0142440000    -0.4210690000 
 C        2.3518150000    -0.0974680000    -0.2452740000 
 C        2.9934340000    -0.7382010000     0.7689040000 
 C        2.3265060000    -1.4277940000     1.8614130000 
 C        2.9325210000    -2.0612810000     2.8648490000 
 C        4.4140210000    -0.7226370000     0.7433480000 
 N        5.5680850000    -0.7250730000     0.7459460000 
 H        0.6553190000     0.5123090000    -1.2084950000 
 H        0.3643500000    -0.3892190000     0.2197880000 
 H        2.9490080000     0.3852850000    -1.0103500000 
 H        1.2394560000    -1.4184290000     1.8465440000 
 H        4.0138080000    -2.1062860000     2.9360610000 
 H        2.3580820000    -2.5509390000     3.6405050000 
*
