! RI PBE def2-SVP def2-SVP/J NBO PAL2
% maxcore 2000
% output
    # printlevel mini
    print[ P_Basis ] 0
    print[ P_SCFInfo ] 1
    print[ P_SCFIterInfo ] 1
    print[ P_OrbEn ] 0
    print[ P_Cartesian ] 0
end
*xyz 0 1
 N        1.0579310000     0.1430440000    -0.0644540000 
 C        2.3930250000     0.0890190000    -0.0211320000 
 C        3.1060640000    -0.8156780000     0.7100740000 
 C        2.4426180000    -1.7889840000     1.4969620000 
 C        1.8211530000    -2.5910670000     2.1455490000 
 C        4.5244330000    -0.7726320000     0.6750070000 
 N        5.6769260000    -0.7326220000     0.6424170000 
 H        0.5840250000     0.8288740000    -0.6192300000 
 H        0.5121960000    -0.5149900000     0.4673740000 
 H        2.9228470000     0.8241390000    -0.6155130000 
 H        1.3012130000    -3.3132640000     2.7295460000 
*
