! RI PBE def2-SVP def2-SVP/J NBO PAL2
% maxcore 2000
% output
    # printlevel mini
    print[ P_Basis ] 0
    print[ P_SCFInfo ] 1
    print[ P_SCFIterInfo ] 1
    print[ P_OrbEn ] 0
    print[ P_Cartesian ] 0
end
*xyz 0 1
 N        0.6713890000    -1.9016540000    -0.6693610000 
 C        2.1127630000    -2.0312610000    -0.5229820000 
 C        2.8322180000    -1.0638090000    -1.4536020000 
 C        4.3109520000    -1.0685010000    -1.2588420000 
 C        5.2094220000    -1.3834950000    -2.1843280000 
 C        6.6861890000    -1.3756770000    -1.9700610000 
 N        7.2535620000    -2.6755250000    -2.3060920000 
 H        0.1897170000    -2.5200440000    -0.0289860000 
 H        0.3878000000    -2.1709040000    -1.6042070000 
 H        2.4929760000    -3.0480240000    -0.7088840000 
 H        2.3693240000    -1.7859170000     0.5131950000 
 H        2.4286620000    -0.0617090000    -1.2666550000 
 H        2.5968910000    -1.3116830000    -2.4947610000 
 H        4.6652970000    -0.7875340000    -0.2660270000 
 H        4.8805770000    -1.6829420000    -3.1783800000 
 H        6.8987240000    -1.0389050000    -0.9435630000 
 H        7.1413750000    -0.6396800000    -2.6438710000 
 H        6.9140470000    -3.3798250000    -1.6624440000 
 H        8.2627040000    -2.6575100000    -2.2303490000 
*
