! RI PBE def2-SVP def2-SVP/J NBO PAL2
% maxcore 2000
% output
    # printlevel mini
    print[ P_Basis ] 0
    print[ P_SCFInfo ] 1
    print[ P_SCFIterInfo ] 1
    print[ P_OrbEn ] 0
    print[ P_Cartesian ] 0
end
*xyz 0 1
 N        1.1519450000     0.0010660000    -2.0643670000 
 C        2.5946990000     0.1801320000    -2.0161410000 
 C        3.2341190000    -0.9009010000    -1.1504310000 
 C        4.7351710000    -0.8539210000    -1.1593440000 
 C        5.4337570000    -0.2220670000    -0.2223670000 
 C        5.3872110000    -1.5638490000    -2.3125470000 
 N        6.8087460000    -1.3068870000    -2.4230530000 
 H        0.7249010000     0.6968440000    -2.6628020000 
 H        0.7520770000     0.1241150000    -1.1413630000 
 H        2.9137560000     1.1625680000    -1.6359840000 
 H        2.9752410000     0.1013890000    -3.0394490000 
 H        2.8799520000    -1.8733740000    -1.5106480000 
 H        2.8712440000    -0.7906270000    -0.1232210000 
 H        4.9367220000     0.2695990000     0.6072800000 
 H        6.5163220000    -0.1995730000    -0.2489600000 
 H        4.8185440000    -1.3222460000    -3.2266990000 
 H        5.2464210000    -2.6419800000    -2.1615240000 
 H        6.9740830000    -0.3366500000    -2.6622930000 
 H        7.2162080000    -1.8728280000    -3.1553760000 
*
