! RI PBE def2-SVP def2-SVP/J NBO PAL2
% maxcore 2000
% output
    # printlevel mini
    print[ P_Basis ] 0
    print[ P_SCFInfo ] 1
    print[ P_SCFIterInfo ] 1
    print[ P_OrbEn ] 0
    print[ P_Cartesian ] 0
end
*xyz 0 1
 N        0.9306740000    -0.0463500000     0.0520040000 
 C        2.3827190000     0.0064300000     0.0497570000 
 C        2.9490100000    -1.3156320000     0.5621520000 
 C        4.4021000000    -1.3418400000     0.5671820000 
 C        5.6048270000    -1.3436770000     0.5732700000 
 C        7.0609660000    -1.3468420000     0.5528130000 
 N        7.6035030000    -0.0418150000     0.9178490000 
 H        0.5427360000     0.7759550000    -0.3918260000 
 H        0.5768660000    -0.0619450000     1.0012400000 
 H        2.8078370000     0.8267160000     0.6464070000 
 H        2.7195770000     0.1558170000    -0.9794020000 
 H        2.5579210000    -2.1268500000    -0.0599190000 
 H        2.5777580000    -1.4976160000     1.5780650000 
 H        7.3882890000    -1.7045420000    -0.4363930000 
 H        7.4222790000    -2.0809040000     1.2813930000 
 H        7.2421310000     0.6661730000     0.2904840000 
 H        8.6110490000    -0.0492380000     0.8146260000 
*
