! RI PBE def2-SVP def2-SVP/J NBO PAL2
% maxcore 2000
% output
    # printlevel mini
    print[ P_Basis ] 0
    print[ P_SCFInfo ] 1
    print[ P_SCFIterInfo ] 1
    print[ P_OrbEn ] 0
    print[ P_Cartesian ] 0
end
*xyz 0 1
 N        2.4784740000    -0.3787370000    -0.9714950000 
 C        2.4991630000     0.2489000000     0.1282200000 
 C        1.5185740000     0.0465120000     1.1692140000 
 C        0.7022390000    -0.1213260000     2.0361940000 
 N        3.5331910000     1.1888620000     0.3432120000 
 C        4.0398140000     1.3385300000     1.7067360000 
 C        3.2057140000     2.3904620000     1.1099540000 
 H        1.6869660000    -1.0196070000    -0.9925480000 
 H       -0.0295570000    -0.2831910000     2.7931310000 
 H        5.1160340000     1.4514420000     1.7647740000 
 H        3.5869260000     0.7319080000     2.4852060000 
 H        3.6527760000     3.2964580000     0.7179690000 
 H        2.1923840000     2.4900970000     1.4873310000 
*
