! RI PBE def2-SVP def2-SVP/J NBO PAL2
% maxcore 2000
% output
    # printlevel mini
    print[ P_Basis ] 0
    print[ P_SCFInfo ] 1
    print[ P_SCFIterInfo ] 1
    print[ P_OrbEn ] 0
    print[ P_Cartesian ] 0
end
*xyz 0 1
 N        0.9803050000    -0.1529550000    -0.1629040000 
 C        2.3280770000    -0.0909870000    -0.0634550000 
 C        2.9896790000     0.5383610000     0.9467380000 
 C        2.2673930000     1.1765150000     1.9710340000 
 N        1.6214200000     1.6846990000     2.7844970000 
 C        3.0640010000    -0.7368060000    -1.0998080000 
 C        3.6649170000    -1.2865200000    -1.9821490000 
 H        0.4030930000     0.2826010000     0.5358850000 
 H        0.5486370000    -0.6304730000    -0.9296760000 
 H        4.0684500000     0.5503500000     0.9660280000 
 H        4.2089290000    -1.7701750000    -2.7595800000 
*
