! RI PBE def2-SVP def2-SVP/J NBO PAL2
% maxcore 2000
% output
    # printlevel mini
    print[ P_Basis ] 0
    print[ P_SCFInfo ] 1
    print[ P_SCFIterInfo ] 1
    print[ P_OrbEn ] 0
    print[ P_Cartesian ] 0
end
*xyz 0 1
 N        2.9369780000    -0.3508130000    -1.3685060000 
 C        2.5074630000    -0.0641930000    -0.0110200000 
 C        3.0240160000     1.3013770000     0.4394640000 
 C        2.3829300000     1.7291010000     1.7599260000 
 N        0.9403210000     1.8633470000     1.6286750000 
 C        4.5138000000     1.2835120000     0.5687050000 
 C        5.3645100000     1.9390140000    -0.2096060000 
 H        2.5731350000    -1.2420010000    -1.6794420000 
 H        3.9478900000    -0.4021820000    -1.4161830000 
 H        2.8308090000    -0.8153320000     0.7309610000 
 H        1.4163200000    -0.0398890000     0.0166710000 
 H        2.7503860000     2.0263880000    -0.3376470000 
 H        2.8836790000     2.6460250000     2.1050780000 
 H        2.5824060000     0.9604290000     2.5156620000 
 H        0.7131360000     2.6475790000     1.0288650000 
 H        0.5152920000     2.0473700000     2.5281270000 
 H        4.9081160000     0.6559770000     1.3693750000 
 H        5.0150990000     2.5700070000    -1.0210250000 
 H        6.4368130000     1.8707820000    -0.0642680000 
*
