! RI PBE def2-SVP def2-SVP/J NBO PAL2
% maxcore 2000
% output
    # printlevel mini
    print[ P_Basis ] 0
    print[ P_SCFInfo ] 1
    print[ P_SCFIterInfo ] 1
    print[ P_OrbEn ] 0
    print[ P_Cartesian ] 0
end
*xyz 0 1
 N        2.8218840000    -0.6997430000     1.1319200000 
 C        2.4677220000     0.1189300000    -0.0119540000 
 C        2.9905690000    -0.5099570000    -1.3048160000 
 C        2.4688110000     0.2178830000    -2.5496970000 
 N        1.0221580000     0.1140710000    -2.6335930000 
 C        4.4468980000    -0.5489080000    -1.3120750000 
 C        5.6485290000    -0.5534790000    -1.3087540000 
 H        2.4138410000    -0.3251460000     1.9782920000 
 H        3.8273290000    -0.7070740000     1.2597200000 
 H        2.8434860000     1.1536430000     0.0380410000 
 H        1.3803640000     0.1692340000    -0.0919790000 
 H        2.6281800000    -1.5464560000    -1.3282250000 
 H        2.9991920000    -0.1757620000    -3.4276610000 
 H        2.7343870000     1.2763560000    -2.4700200000 
 H        0.7455910000    -0.8234180000    -2.8989070000 
 H        0.6583730000     0.7417490000    -3.3380310000 
 H        6.7126760000    -0.5673130000    -1.3121400000 
*
