! RI PBE def2-SVP def2-SVP/J NBO PAL2
% maxcore 2000
% output
    # printlevel mini
    print[ P_Basis ] 0
    print[ P_SCFInfo ] 1
    print[ P_SCFIterInfo ] 1
    print[ P_OrbEn ] 0
    print[ P_Cartesian ] 0
end
*xyz 0 1
 N        0.7308720000    -0.7549320000     2.1890930000 
 C        2.1792600000    -0.8718520000     2.2718880000 
 C        2.8469350000     0.2232540000     1.4614340000 
 C        4.3795120000     0.1791340000     1.4697090000 
 N        4.9933620000     1.1424310000     0.5570830000 
 C        4.9186040000     0.4126640000     2.8473060000 
 C        5.5793990000    -0.4751750000     3.5737100000 
 H        0.2822150000    -1.4526990000     2.7689950000 
 H        0.4168000000    -0.9173470000     1.2395710000 
 H        2.5652700000    -1.8492120000     1.9365760000 
 H        2.4677390000    -0.7710580000     3.3218390000 
 H        2.5048030000     1.1982390000     1.8276070000 
 H        2.5134750000     0.1498730000     0.4175640000 
 H        4.7003970000    -0.8187440000     1.1467880000 
 H        4.7749410000     2.0868720000     0.8568710000 
 H        4.5970950000     1.0388660000    -0.3706100000 
 H        4.7234670000     1.4025050000     3.2619230000 
 H        5.7949550000    -1.4689630000     3.1933750000 
 H        5.9349930000    -0.2427580000     4.5709790000 
*
