! RI PBE def2-SVP def2-SVP/J NBO PAL2
% maxcore 2000
% output
    # printlevel mini
    print[ P_Basis ] 0
    print[ P_SCFInfo ] 1
    print[ P_SCFIterInfo ] 1
    print[ P_OrbEn ] 0
    print[ P_Cartesian ] 0
end
*xyz 0 1
 N        0.9891460000    -0.0747760000     0.0479510000 
 C        2.4329840000     0.0767200000     0.1422230000 
 C        3.1043760000    -0.4859650000    -1.0963070000 
 C        4.6367600000    -0.3990730000    -1.0775460000 
 N        5.2936490000    -1.0459440000    -2.2094130000 
 C        5.0808490000     0.9906610000    -0.9941290000 
 C        5.4170000000     2.1416520000    -0.9402530000 
 H        0.5307780000     0.3765600000     0.8291490000 
 H        0.7313950000    -1.0539080000     0.0821160000 
 H        2.8716880000    -0.3983430000     1.0357650000 
 H        2.6587160000     1.1440740000     0.2145820000 
 H        2.7206290000     0.0301240000    -1.9815890000 
 H        2.8402250000    -1.5458990000    -1.2027540000 
 H        4.9939050000    -0.9066610000    -0.1713980000 
 H        5.0567770000    -0.5593100000    -3.0663660000 
 H        4.9525780000    -1.9960600000    -2.3001950000 
 H        5.7287570000     3.1580370000    -0.8904250000 
*
