! RI PBE def2-SVP def2-SVP/J NBO PAL2
% maxcore 2000
% output
    # printlevel mini
    print[ P_Basis ] 0
    print[ P_SCFInfo ] 1
    print[ P_SCFIterInfo ] 1
    print[ P_OrbEn ] 0
    print[ P_Cartesian ] 0
end
*xyz 0 1
 N        1.0644070000     0.1350250000    -0.1023300000 
 C        2.3925240000     0.0828700000    -0.0375630000 
 C        3.1065400000    -0.6479040000     0.8706210000 
 C        2.4047720000    -1.4200010000     1.8302640000 
 N        1.7397500000    -2.0113410000     2.5648620000 
 C        4.5232540000    -0.6337230000     0.8529120000 
 N        5.6757340000    -0.6137800000     0.8280790000 
 H        0.6032760000     0.6929620000    -0.7956990000 
 H        0.4963960000    -0.3870660000     0.5465400000 
 H        2.9335380000     0.6718470000    -0.7695660000 
*
