! RI PBE def2-SVP def2-SVP/J NBO PAL2
% maxcore 2000
% output
    # printlevel mini
    print[ P_Basis ] 0
    print[ P_SCFInfo ] 1
    print[ P_SCFIterInfo ] 1
    print[ P_OrbEn ] 0
    print[ P_Cartesian ] 0
end
*xyz 0 1
 N        1.5049150000    -0.1757020000    -0.4942320000 
 C        2.6713200000     0.3793410000    -0.0908570000 
 C        2.8609210000     1.6873980000     0.2148190000 
 C        1.7751100000     2.5829390000     0.1674310000 
 N        0.8477950000     3.2696460000     0.1145940000 
 C        3.7905150000    -0.5131010000    -0.0186520000 
 N        4.6742960000    -1.2470010000     0.0411150000 
 H        0.6667300000     0.3813790000    -0.4673230000 
 H        1.4088320000    -1.1736340000    -0.5262610000 
 H        3.8403660000     2.0484760000     0.4903960000 
*
