! RI PBE def2-SVP def2-SVP/J NBO PAL2
% maxcore 2000
% output
    # printlevel mini
    print[ P_Basis ] 0
    print[ P_SCFInfo ] 1
    print[ P_SCFIterInfo ] 1
    print[ P_OrbEn ] 0
    print[ P_Cartesian ] 0
end
*xyz 0 1
 N        2.1198080000    -0.5563630000     4.2350300000 
 C        2.7404670000    -0.1054720000     2.9992400000 
 C        4.1266370000     0.4437430000     3.2796780000 
 N        4.7790400000     0.8867530000     2.0775490000 
 C        6.1240560000     1.4570120000     2.1908460000 
 C        6.4892570000     0.7788870000     0.8627140000 
 C        5.2747940000    -0.1207050000     1.1316250000 
 H        1.2347560000    -1.0085700000     4.0464000000 
 H        1.9217320000     0.2331330000     4.8382450000 
 H        2.1686060000     0.6593540000     2.4531870000 
 H        2.8288910000    -0.9700570000     2.3329470000 
 H        4.7135300000    -0.3273600000     3.8126310000 
 H        4.0438660000     1.3041960000     3.9555090000 
 H        6.6937910000     1.0314330000     3.0327120000 
 H        6.1641270000     2.5481770000     2.2509180000 
 H        7.4646580000     0.3009750000     0.7921020000 
 H        6.3372700000     1.4353920000     0.0062630000 
 H        5.5648940000    -1.0594870000     1.6316780000 
 H        4.6065180000    -0.3543300000     0.2988140000 
*
