! RI PBE def2-SVP def2-SVP/J NBO PAL2
% maxcore 2000
% output
    # printlevel mini
    print[ P_Basis ] 0
    print[ P_SCFInfo ] 1
    print[ P_SCFIterInfo ] 1
    print[ P_OrbEn ] 0
    print[ P_Cartesian ] 0
end
*xyz 0 1
 N        2.5343290000    -0.0888180000     0.2770110000 
 C        1.9920350000     1.2151940000    -0.0890220000 
 C        3.0485460000     2.2948750000     0.0403750000 
 N        3.6037350000     2.3174440000     1.3814390000 
 C        4.4675950000     3.4282220000     1.6284650000 
 C        3.8477680000     4.6865390000     2.1494850000 
 C        4.6918550000     3.8316920000     3.0489120000 
 H        1.9681750000    -0.8332610000    -0.1072220000 
 H        2.5122250000    -0.2021690000     1.2829550000 
 H        1.1180550000     1.5003850000     0.5138160000 
 H        1.6682130000     1.1730960000    -1.1327000000 
 H        2.5909610000     3.2699510000    -0.1537720000 
 H        3.8229450000     2.1356010000    -0.7283720000 
 H        4.1138740000     1.4547750000     1.5342460000 
 H        5.3139920000     3.5621470000     0.9500180000 
 H        2.7775430000     4.6651050000     2.3125680000 
 H        4.2463900000     5.6356960000     1.8140180000 
 H        4.1758340000     3.2505880000     3.8027640000 
 H        5.6730290000     4.1898290000     3.3340850000 
*
