! RI PBE def2-SVP def2-SVP/J NBO PAL2
% maxcore 2000
% output
    # printlevel mini
    print[ P_Basis ] 0
    print[ P_SCFInfo ] 1
    print[ P_SCFIterInfo ] 1
    print[ P_OrbEn ] 0
    print[ P_Cartesian ] 0
end
*xyz 0 1
 N        1.1017790000     0.2358870000     0.0797060000 
 C        2.5245850000    -0.0005180000    -0.1222290000 
 C        3.1233380000    -0.7001950000     1.0981200000 
 N        2.4451730000    -1.9426420000     1.4363000000 
 C        4.5966200000    -0.9314220000     0.9125950000 
 C        5.5805750000     0.1355530000     1.2855530000 
 C        5.4773490000    -1.1140560000     2.1062190000 
 H        0.6502380000     0.5080760000    -0.7831250000 
 H        0.9570600000     0.9902070000     0.7402940000 
 H        3.1024130000     0.9118810000    -0.3341600000 
 H        2.6372940000    -0.6617330000    -0.9888650000 
 H        3.0025940000    -0.0205910000     1.9563100000 
 H        2.7507870000    -2.6783400000     0.8083460000 
 H        1.4510120000    -1.8114320000     1.2725190000 
 H        4.8474240000    -1.5250270000     0.0355510000 
 H        5.1884370000     1.0528510000     1.7099050000 
 H        6.4550130000     0.2717610000     0.6614570000 
 H        5.0032620000    -1.0489370000     3.0778770000 
 H        6.2843570000    -1.8335210000     2.0478360000 
*
