! RI PBE def2-SVP def2-SVP/J NBO PAL2
% maxcore 2000
% output
    # printlevel mini
    print[ P_Basis ] 0
    print[ P_SCFInfo ] 1
    print[ P_SCFIterInfo ] 1
    print[ P_OrbEn ] 0
    print[ P_Cartesian ] 0
end
*xyz 0 1
 N        2.4572430000     0.3432240000    -1.2353600000 
 C        2.1860080000     0.1623550000     0.1860480000 
 C        2.7962360000     1.2879350000     0.9984460000 
 N        4.2208860000     1.3899560000     0.7527180000 
 C        4.8884830000     2.3470350000     1.6152810000 
 C        6.3494440000     2.4041420000     1.3171120000 
 C        7.0128880000     3.5108780000     1.0145670000 
 H        1.8026510000    -0.1859820000    -1.7954500000 
 H        3.3787630000    -0.0113590000    -1.4596230000 
 H        2.5564930000    -0.7965980000     0.5753640000 
 H        1.1027860000     0.1781340000     0.3353240000 
 H        2.6456080000     1.0791600000     2.0633790000 
 H        2.2642870000     2.2276030000     0.7712100000 
 H        4.3594280000     1.6748310000    -0.2107600000 
 H        4.7469230000     2.0102760000     2.6506400000 
 H        4.4589220000     3.3620660000     1.5536300000 
 H        6.8699710000     1.4494690000     1.3502090000 
 H        6.5123230000     4.4732340000     0.9626820000 
 H        8.0780570000     3.4993410000     0.8140040000 
*
