! RI PBE def2-SVP def2-SVP/J NBO PAL2
% maxcore 2000
% output
    # printlevel mini
    print[ P_Basis ] 0
    print[ P_SCFInfo ] 1
    print[ P_SCFIterInfo ] 1
    print[ P_OrbEn ] 0
    print[ P_Cartesian ] 0
end
*xyz 0 1
 N        2.7852600000    -0.8215480000     1.3120750000 
 C        2.3485380000     0.0184380000     0.2031180000 
 C        2.8448590000    -0.5352630000    -1.1183920000 
 N        4.2867140000    -0.6803150000    -1.1013040000 
 C        4.8182540000    -1.0887430000    -2.3890890000 
 C        6.2390850000    -1.3940180000    -2.3186090000 
 C        7.4059310000    -1.6666930000    -2.2557350000 
 H        2.1838120000    -0.6996870000     2.1152700000 
 H        3.7166320000    -0.5553690000     1.6062770000 
 H        2.6815650000     1.0612240000     0.2978140000 
 H        1.2553490000     0.0261510000     0.1829090000 
 H        2.5769390000     0.1622210000    -1.9199960000 
 H        2.3315840000    -1.4894130000    -1.3289080000 
 H        4.5326850000    -1.3822390000    -0.4122060000 
 H        4.6648160000    -0.2716390000    -3.1037610000 
 H        4.2954660000    -1.9670490000    -2.8092110000 
 H        8.4426210000    -1.9008470000    -2.2013620000 
*
