! RI PBE def2-SVP def2-SVP/J NBO PAL2
% maxcore 2000
% output
    # printlevel mini
    print[ P_Basis ] 0
    print[ P_SCFInfo ] 1
    print[ P_SCFIterInfo ] 1
    print[ P_OrbEn ] 0
    print[ P_Cartesian ] 0
end
*xyz 0 1
 N        1.7671150000    -1.2279550000    -0.9620770000 
 C        2.7993940000    -0.7525000000    -0.7961950000 
 C        4.1209260000    -0.1738830000    -0.5902510000 
 N        4.4500600000    -0.1409230000     0.8229500000 
 C        5.7393610000     0.4464130000     1.1017220000 
 C        6.8735790000    -0.2321110000     0.4537970000 
 N        7.7185100000    -0.7994600000    -0.0813120000 
 H        4.1067700000     0.8518530000    -0.9739310000 
 H        4.8395450000    -0.7377280000    -1.2057380000 
 H        4.3856480000    -1.0696370000     1.2210650000 
 H        5.9052890000     0.4466560000     2.1811490000 
 H        5.7405930000     1.4928150000     0.7812300000 
*
