! RI PBE def2-SVP def2-SVP/J NBO PAL2
% maxcore 2000
% output
    # printlevel mini
    print[ P_Basis ] 0
    print[ P_SCFInfo ] 1
    print[ P_SCFIterInfo ] 1
    print[ P_OrbEn ] 0
    print[ P_Cartesian ] 0
end
*xyz 0 1
 N        2.4593570000    -0.3811490000    -0.9374950000 
 C        2.4366690000     0.0586290000     0.2448350000 
 C        1.3138320000    -0.1985230000     1.1420390000 
 N        0.4312900000    -0.3977930000     1.8542120000 
 N        3.5080090000     0.8195800000     0.7368980000 
 C        3.8504380000     0.6703790000     2.1544530000 
 C        3.1960800000     1.8964470000     1.6815260000 
 H        1.6155400000    -0.9119990000    -1.1465270000 
 H        4.9168250000     0.6484990000     2.3430670000 
 H        3.2536250000    -0.0104920000     2.7544740000 
 H        3.7681140000     2.8006490000     1.5129210000 
 H        2.1571010000     2.0437840000     1.9618880000 
*
