! RI PBE def2-SVP def2-SVP/J NBO PAL2
% maxcore 2000
% output
    # printlevel mini
    print[ P_Basis ] 0
    print[ P_SCFInfo ] 1
    print[ P_SCFIterInfo ] 1
    print[ P_OrbEn ] 0
    print[ P_Cartesian ] 0
end
*xyz 0 1
 N        1.8022310000     2.7689690000    -0.4235440000 
 C        2.7513520000     2.1652040000    -0.1810040000 
 C        3.8885190000     1.3747130000     0.1743060000 
 N        4.9955940000     1.5746450000    -0.4119220000 
 N        5.9985990000     0.7096070000     0.0636160000 
 C        6.9437570000     0.4100600000    -1.0275930000 
 C        7.3045110000     1.3909480000    -0.0040080000 
 H        3.7626060000     0.6164200000     0.9481690000 
 H        6.6700900000     0.7847440000    -2.0066080000 
 H        7.3358120000    -0.5987770000    -0.9927610000 
 H        7.2781130000     2.4378570000    -0.2815780000 
 H        7.9704150000     1.1270100000     0.8081370000 
*
