! RI PBE def2-SVP def2-SVP/J NBO PAL2
% maxcore 2000
% output
    # printlevel mini
    print[ P_Basis ] 0
    print[ P_SCFInfo ] 1
    print[ P_SCFIterInfo ] 1
    print[ P_OrbEn ] 0
    print[ P_Cartesian ] 0
end
*xyz 0 1
 N        1.2576640000     0.2536470000    -0.3217350000 
 C        2.3697400000     0.0699490000     0.2413970000 
 N        3.3240450000     1.0758330000     0.3162710000 
 C        3.8859410000     1.5629710000     1.5417330000 
 C        3.0288390000     2.4378110000     0.6745240000 
 C        1.7318240000     2.8165990000     1.1770310000 
 N        0.7311350000     3.1822710000     1.6089050000 
 H        0.7151860000    -0.6045790000    -0.3434480000 
 H        2.7349600000    -0.8747700000     0.6585070000 
 H        4.9587100000     1.7217860000     1.5502870000 
 H        3.4433660000     1.2382560000     2.4791100000 
 H        3.4964110000     3.1947170000     0.0532380000 
*
