! RI PBE def2-SVP def2-SVP/J NBO PAL2
% maxcore 2000
% output
    # printlevel mini
    print[ P_Basis ] 0
    print[ P_SCFInfo ] 1
    print[ P_SCFIterInfo ] 1
    print[ P_OrbEn ] 0
    print[ P_Cartesian ] 0
end
*xyz 0 1
 N        2.5118000000    -1.0951010000    -0.1715480000 
 C        2.1368640000     0.0517980000     0.2487510000 
 N        2.9334370000     0.8413290000     0.9955210000 
 C        2.5651520000     2.1475440000     1.5027540000 
 C        3.9108460000     2.7610490000     1.8679470000 
 C        4.7202660000     1.5492440000     2.3234490000 
 C        4.2804360000     0.4473500000     1.3643800000 
 H        1.7737990000    -1.5241700000    -0.7185670000 
 H        1.1565360000     0.5008210000     0.0473490000 
 H        1.9225210000     2.0694160000     2.3912310000 
 H        2.0243460000     2.7277430000     0.7501100000 
 H        3.8255310000     3.5386020000     2.6282400000 
 H        4.3677210000     3.2050720000     0.9788100000 
 H        4.4475750000     1.2844420000     3.3492760000 
 H        5.7974630000     1.7179650000     2.3002940000 
 H        4.2810120000    -0.5491600000     1.8126560000 
 H        4.9154940000     0.3940670000     0.4721260000 
*
