! RI PBE def2-SVP def2-SVP/J NBO PAL2
% maxcore 2000
% output
    # printlevel mini
    print[ P_Basis ] 0
    print[ P_SCFInfo ] 1
    print[ P_SCFIterInfo ] 1
    print[ P_OrbEn ] 0
    print[ P_Cartesian ] 0
end
*xyz 0 1
 N        2.5991500000     1.2586630000    -0.0812620000 
 C        2.5404000000    -0.0155910000    -0.0295770000 
 N        2.9324910000    -0.7947440000    -1.0573100000 
 C        2.8903160000    -2.2434790000    -1.0603660000 
 C        3.4287950000    -2.5683980000    -2.4172580000 
 C        3.7338700000    -1.4680490000    -3.0907300000 
 C        3.4481970000    -0.2381030000    -2.2924200000 
 H        2.2605080000     1.6603930000     0.7858920000 
 H        2.1757390000    -0.5916620000     0.8298730000 
 H        1.8697740000    -2.6293680000    -0.9240680000 
 H        3.5086230000    -2.6784690000    -0.2619460000 
 H        3.5406190000    -3.5852970000    -2.7694450000 
 H        4.1399350000    -1.4319750000    -4.0930940000 
 H        2.7133120000     0.4247260000    -2.7676800000 
 H        4.3398820000     0.3759640000    -2.1105100000 
*
