! RI PBE def2-SVP def2-SVP/J NBO PAL2
% maxcore 2000
% output
    # printlevel mini
    print[ P_Basis ] 0
    print[ P_SCFInfo ] 1
    print[ P_SCFIterInfo ] 1
    print[ P_OrbEn ] 0
    print[ P_Cartesian ] 0
end
*xyz 0 1
 N        2.7584350000     0.9292040000     1.1216190000 
 C        2.4359300000     0.2296930000    -0.0166430000 
 N        1.5052560000     0.5095150000    -0.8395360000 
 C        3.2456100000    -1.0250020000    -0.2298070000 
 C        4.7363680000    -0.8386600000    -0.1146970000 
 C        5.4365690000    -1.0123140000     1.2070520000 
 C        5.6128370000    -2.0264510000     0.1179890000 
 H        2.3934630000     1.8622320000     1.2135980000 
 H        3.6810310000     0.7881930000     1.4984330000 
 H        1.0152400000     1.3637040000    -0.5727920000 
 H        2.9753920000    -1.4047500000    -1.2158730000 
 H        2.9211200000    -1.7705450000     0.5064840000 
 H        5.1467280000    -0.0735830000    -0.7673350000 
 H        4.8378910000    -1.3021480000     2.0637380000 
 H        6.2735530000    -0.3657470000     1.4417550000 
 H        5.1289650000    -2.9879030000     0.2434980000 
 H        6.5678110000    -2.0687290000    -0.3900850000 
*
