! RI PBE def2-SVP def2-SVP/J NBO PAL2
% maxcore 2000
% output
    # printlevel mini
    print[ P_Basis ] 0
    print[ P_SCFInfo ] 1
    print[ P_SCFIterInfo ] 1
    print[ P_OrbEn ] 0
    print[ P_Cartesian ] 0
end
*xyz 0 1
 N        0.9719390000    -0.0999240000    -0.0504800000 
 C        2.2379750000    -0.0715680000    -0.0244420000 
 N        2.9784960000    -0.9187790000    -0.8023910000 
 C        4.3444620000    -0.9547490000    -0.8354230000 
 C        5.0756260000    -1.7844460000    -1.5972910000 
 C        6.4861220000    -1.7787200000    -1.5920350000 
 C        7.6907390000    -1.7982590000    -1.6099790000 
 H        0.5824160000     0.5896490000     0.5827180000 
 H        2.8546670000     0.5949640000     0.5875980000 
 H        2.4483230000    -1.5520560000    -1.3838950000 
 H        4.8320620000    -0.2410020000    -0.1800270000 
 H        4.5813050000    -2.4975830000    -2.2521260000 
 H        8.7544060000    -1.8115070000    -1.6221460000 
*
