! RI PBE def2-SVP def2-SVP/J NBO PAL2
% maxcore 2000
% output
    # printlevel mini
    print[ P_Basis ] 0
    print[ P_SCFInfo ] 1
    print[ P_SCFIterInfo ] 1
    print[ P_OrbEn ] 0
    print[ P_Cartesian ] 0
end
*xyz 0 1
 N        2.8864260000     1.9525020000    -2.6080940000 
 C        2.2694170000     2.0248070000    -1.4968240000 
 N        2.8719930000     1.7631550000    -0.3074410000 
 C        4.2934390000     1.5523980000    -0.2246670000 
 C        5.1094070000     2.8491070000    -0.2970990000 
 C        4.8154560000     3.7526630000     0.8015020000 
 C        4.5452270000     4.4741090000     1.7233930000 
 H        2.2517800000     2.1290810000    -3.3784290000 
 H        1.2079740000     2.2737890000    -1.3863040000 
 H        2.4029720000     2.0844220000     0.5213690000 
 H        4.5830960000     0.9140320000    -1.0604800000 
 H        4.5115640000     1.0264770000     0.7070490000 
 H        4.8974150000     3.3385060000    -1.2521140000 
 H        6.1761140000     2.6019590000    -0.2923690000 
 H        4.3227210000     5.1270130000     2.5338110000 
*
