! RI PBE def2-SVP def2-SVP/J NBO PAL2
% maxcore 2000
% output
    # printlevel mini
    print[ P_Basis ] 0
    print[ P_SCFInfo ] 1
    print[ P_SCFIterInfo ] 1
    print[ P_OrbEn ] 0
    print[ P_Cartesian ] 0
end
*xyz 0 1
 N        2.6779330000     0.8554500000    -0.8002510000 
 C        2.0204200000    -0.0503320000     0.0008980000 
 N        0.7634260000    -0.2591080000     0.0276090000 
 C        2.9286610000    -0.8589290000     0.8695630000 
 C        2.4445600000    -1.4228030000     1.9757540000 
 C        4.3315730000    -1.0065590000     0.4549410000 
 C        5.3771470000    -0.9212550000     1.2721740000 
 H        2.1198970000     1.5509060000    -1.2658360000 
 H        3.5919880000     1.1614540000    -0.5098050000 
 H        0.2635090000     0.3910020000    -0.5767700000 
 H        1.4057320000    -1.2794710000     2.2454180000 
 H        3.0673270000    -2.0527830000     2.5992470000 
 H        4.5019290000    -1.1917300000    -0.6038500000 
 H        5.2529890000    -0.6900710000     2.3249880000 
 H        6.3873890000    -1.0784720000     0.9127090000 
*
