! RI PBE def2-SVP def2-SVP/J NBO PAL2
% maxcore 2000
% output
    # printlevel mini
    print[ P_Basis ] 0
    print[ P_SCFInfo ] 1
    print[ P_SCFIterInfo ] 1
    print[ P_OrbEn ] 0
    print[ P_Cartesian ] 0
end
*xyz 0 1
 N        3.0123200000    -0.3769650000     1.0843670000 
 C        2.2317620000     0.1139060000     0.0849390000 
 N        0.9581000000     0.1366680000     0.0416490000 
 C        3.0001740000     0.6817420000    -1.0749320000 
 C        2.3505220000     1.1951250000    -2.1215800000 
 C        4.4237300000     0.6566070000    -1.0258590000 
 C        5.6249360000     0.6205620000    -0.9543760000 
 H        2.5962520000    -0.7783070000     1.9033360000 
 H        4.0137630000    -0.3430090000     1.0122590000 
 H        0.5443240000    -0.2719890000     0.8760190000 
 H        1.2677010000     1.1939220000    -2.1174180000 
 H        2.8867740000     1.6083450000    -2.9656330000 
 H        6.6885420000     0.5997430000    -0.9150100000 
*
