! RI PBE def2-SVP def2-SVP/J NBO PAL2
% maxcore 2000
% output
    # printlevel mini
    print[ P_Basis ] 0
    print[ P_SCFInfo ] 1
    print[ P_SCFIterInfo ] 1
    print[ P_OrbEn ] 0
    print[ P_Cartesian ] 0
end
*xyz 0 1
 N        1.1438820000    -0.2637230000     0.9799770000 
 C        2.3619430000    -0.5726640000     0.4183510000 
 N        2.8805800000    -1.7316230000     0.3450210000 
 C        3.1087390000     0.6301860000    -0.0975480000 
 C        4.5469460000     0.3437550000    -0.5013720000 
 C        5.2029690000     1.5344930000    -1.1157590000 
 C        6.2889230000     2.1360460000    -0.6502060000 
 H        0.4918600000    -1.0149390000     1.1302940000 
 H        0.7274600000     0.6228380000     0.7520010000 
 H        2.2615830000    -2.4464360000     0.7254750000 
 H        3.0814290000     1.4147490000     0.6670160000 
 H        2.5516750000     1.0288490000    -0.9559650000 
 H        4.5441520000    -0.4928950000    -1.2068790000 
 H        5.1124090000     0.0038810000     0.3692980000 
 H        4.7354460000     1.9257770000    -2.0193930000 
 H        6.7905560000     1.7820020000     0.2455270000 
 H        6.7208600000     2.9965150000    -1.1482380000 
*
