! RI PBE def2-SVP def2-SVP/J NBO PAL2
% maxcore 2000
% output
    # printlevel mini
    print[ P_Basis ] 0
    print[ P_SCFInfo ] 1
    print[ P_SCFIterInfo ] 1
    print[ P_OrbEn ] 0
    print[ P_Cartesian ] 0
end
*xyz 0 1
 N        0.9002190000    -0.1559240000     0.0247940000 
 C        2.1630910000    -0.1673060000    -0.0094640000 
 N        2.8944770000     0.1837540000     1.0996830000 
 C        4.2512210000     0.2008600000     1.1559540000 
 C        4.9781450000     0.5421700000     2.2341430000 
 C        6.3895920000     0.5297980000     2.1974310000 
 N        7.5436950000     0.5249240000     2.1839740000 
 H        0.5079450000    -0.4384270000    -0.8667700000 
 H        2.7873750000    -0.4393420000    -0.8664540000 
 H        2.3527260000     0.4417340000     1.9127980000 
 H        4.7476470000    -0.0908460000     0.2363130000 
 H        4.5085470000     0.8377630000     3.1660680000 
*
