! RI PBE def2-SVP def2-SVP/J NBO PAL2
% maxcore 2000
% output
    # printlevel mini
    print[ P_Basis ] 0
    print[ P_SCFInfo ] 1
    print[ P_SCFIterInfo ] 1
    print[ P_OrbEn ] 0
    print[ P_Cartesian ] 0
end
*xyz 0 1
 N        1.0238460000    -0.0753690000    -0.1813050000 
 C        2.3723520000     0.0471790000     0.0642060000 
 N        3.1282380000     1.0241530000    -0.2341950000 
 C        3.0094940000    -1.1465040000     0.6852790000 
 C        2.4785050000    -2.3713750000     0.6750850000 
 C        4.2867660000    -0.9379980000     1.2969630000 
 N        5.3044900000    -0.8253950000     1.8216250000 
 H        0.5551650000     0.7622090000    -0.4853090000 
 H        0.4877180000    -0.6301860000     0.4655060000 
 H        2.6128910000     1.7937080000    -0.6580840000 
 H        1.5327070000    -2.5679810000     0.1860610000 
 H        2.9967190000    -3.2067420000     1.1272570000 
*
