! RI PBE def2-SVP def2-SVP/J NBO PAL2
% maxcore 2000
% output
    # printlevel mini
    print[ P_Basis ] 0
    print[ P_SCFInfo ] 1
    print[ P_SCFIterInfo ] 1
    print[ P_OrbEn ] 0
    print[ P_Cartesian ] 0
end
*xyz 0 1
 N        1.1060140000     0.0074590000    -0.0389990000 
 C        2.4638230000     0.1116970000    -0.1157690000 
 N        3.1683710000     0.9663180000    -0.7447550000 
 C        3.1650720000    -0.9045280000     0.6321130000 
 C        3.7401720000    -1.7571800000     1.2596100000 
 C        4.3977990000    -2.7220200000     1.9696680000 
 N        4.9452520000    -3.5411320000     2.5724790000 
 H        0.5202490000     0.6637080000    -0.5220300000 
 H        0.6726500000    -0.7209630000     0.4970000000 
 H        2.5869890000     1.6406310000    -1.2410080000 
*
