! RI PBE def2-SVP def2-SVP/J NBO PAL2
% maxcore 2000
% output
    # printlevel mini
    print[ P_Basis ] 0
    print[ P_SCFInfo ] 1
    print[ P_SCFIterInfo ] 1
    print[ P_OrbEn ] 0
    print[ P_Cartesian ] 0
end
*xyz 0 1
 N        2.1796120000    -0.7581460000     1.2195360000 
 C        2.3976750000    -0.5173410000    -0.1119820000 
 N        1.9406680000    -1.1831890000    -1.0966190000 
 C        3.2445790000     0.6936510000    -0.4126880000 
 C        4.7504390000     0.4207610000    -0.2836180000 
 C        5.1650870000     0.1855530000     1.0903070000 
 N        5.4456360000     0.0122270000     2.1923970000 
 H        1.8045580000    -1.6563890000     1.4751640000 
 H        2.8114450000    -0.3583380000     1.8945200000 
 H        1.3979650000    -1.9895120000    -0.7884960000 
 H        2.9653970000     1.5280990000     0.2360780000 
 H        3.0399760000     0.9739880000    -1.4445710000 
 H        5.3163250000     1.2754330000    -0.6638160000 
 H        5.0250280000    -0.4475060000    -0.8889010000 
*
