! RI PBE def2-SVP def2-SVP/J NBO PAL2
% maxcore 2000
% output
    # printlevel mini
    print[ P_Basis ] 0
    print[ P_SCFInfo ] 1
    print[ P_SCFIterInfo ] 1
    print[ P_OrbEn ] 0
    print[ P_Cartesian ] 0
end
*xyz 0 1
 N        1.0909050000    -0.0405340000    -0.2001380000 
 N        2.4580830000    -0.0691920000    -0.1065330000 
 C        2.9855340000    -1.0429640000     0.5115420000 
 C        2.2852960000    -2.2426550000     1.1029690000 
 C        3.4020200000    -3.0268060000     1.7980890000 
 C        4.6662020000    -2.6456480000     1.0253390000 
 C        4.4699140000    -1.1595240000     0.7312120000 
 H        0.8207780000     0.5342320000    -0.9833130000 
 H        0.6471480000    -0.9531600000    -0.2482780000 
 H        1.8267830000    -2.8397990000     0.3017190000 
 H        1.4743960000    -1.9492490000     1.7771460000 
 H        3.2192880000    -4.1025990000     1.8211210000 
 H        3.4935380000    -2.6910730000     2.8358480000 
 H        4.7082640000    -3.2067960000     0.0857530000 
 H        5.5835480000    -2.8595260000     1.5766980000 
 H        5.0418460000    -0.7864350000    -0.1189420000 
 H        4.7598550000    -0.5638530000     1.6060590000 
*
