! RI PBE def2-SVP def2-SVP/J NBO PAL2
% maxcore 2000
% output
    # printlevel mini
    print[ P_Basis ] 0
    print[ P_SCFInfo ] 1
    print[ P_SCFIterInfo ] 1
    print[ P_OrbEn ] 0
    print[ P_Cartesian ] 0
end
*xyz 0 1
 N        1.0402190000     0.0271390000     0.1634760000 
 N        2.3455350000     0.0367620000     0.1098370000 
 C        2.9486050000     0.3318190000    -0.9983110000 
 C        4.4006080000     0.3521930000    -1.0930860000 
 C        4.7236800000     0.6907740000    -2.3597910000 
 C        3.4937260000     0.8972190000    -3.1145020000 
 C        2.4244840000     0.6853660000    -2.3114220000 
 H        0.6251120000    -0.2110190000     1.0435140000 
 H        0.4568500000     0.2390720000    -0.6329300000 
 H        5.0597620000     0.1285980000    -0.2674610000 
 H        5.7201890000     0.7961200000    -2.7652190000 
 H        3.4534000000     1.1774420000    -4.1590150000 
 H        1.3872200000     0.7673950000    -2.6040690000 
*
