! RI PBE def2-SVP def2-SVP/J NBO PAL2
% maxcore 2000
% output
    # printlevel mini
    print[ P_Basis ] 0
    print[ P_SCFInfo ] 1
    print[ P_SCFIterInfo ] 1
    print[ P_OrbEn ] 0
    print[ P_Cartesian ] 0
end
*xyz 0 1
 N        1.2015040000    -0.0243150000     0.3412990000 
 N        2.5361960000    -0.1352030000     0.1802680000 
 C        2.9927380000    -0.7384670000    -0.8629890000 
 C        2.1284220000    -1.3889630000    -1.8496430000 
 C        2.4521870000    -1.6272480000    -3.1193120000 
 C        4.4496680000    -0.7997130000    -1.0337930000 
 C        5.3154430000     0.0614510000    -0.5079270000 
 H        0.9832320000     0.6484900000     1.0574710000 
 H        0.6460050000     0.1014000000    -0.4965260000 
 H        1.1599470000    -1.7252760000    -1.4852170000 
 H        3.3981300000    -1.3030980000    -3.5393340000 
 H        1.7732820000    -2.1496470000    -3.7829830000 
 H        4.8165860000    -1.6218440000    -1.6418740000 
 H        4.9770710000     0.9035570000     0.0844300000 
 H        6.3825100000    -0.0645340000    -0.6463690000 
*
