! RI PBE def2-SVP def2-SVP/J NBO PAL2
% maxcore 2000
% output
    # printlevel mini
    print[ P_Basis ] 0
    print[ P_SCFInfo ] 1
    print[ P_SCFIterInfo ] 1
    print[ P_OrbEn ] 0
    print[ P_Cartesian ] 0
end
*xyz 0 1
 N        0.6274170000    -0.6652470000    -0.8340490000 
 N        1.8997160000    -0.4127860000    -0.5753000000 
 C        2.8047230000    -1.1326440000    -1.1318620000 
 C        4.1925130000    -0.8854280000    -0.8730010000 
 C        5.2008990000    -1.5921270000    -1.4145410000 
 C        6.5933540000    -1.3369390000    -1.1489280000 
 C        7.6065360000    -2.0283140000    -1.6776610000 
 H       -0.0525120000    -0.0867930000    -0.3835100000 
 H        0.3392900000    -1.4071860000    -1.4552500000 
 H        2.5385410000    -1.9493560000    -1.8148090000 
 H        4.4081980000    -0.0670030000    -0.1906590000 
 H        4.9705200000    -2.4092410000    -2.0963880000 
 H        6.8108520000    -0.5179180000    -0.4660260000 
 H        7.4308110000    -2.8517510000    -2.3625290000 
 H        8.6371430000    -1.7931650000    -1.4429760000 
*
