! RI PBE def2-SVP def2-SVP/J NBO PAL2
% maxcore 2000
% output
    # printlevel mini
    print[ P_Basis ] 0
    print[ P_SCFInfo ] 1
    print[ P_SCFIterInfo ] 1
    print[ P_OrbEn ] 0
    print[ P_Cartesian ] 0
end
*xyz 0 1
 N        1.0014070000    -1.0306340000    -1.2992140000 
 N        2.3447190000    -1.1529980000    -1.2750140000 
 C        2.9970480000    -0.5257700000    -0.3777860000 
 C        4.4527930000    -0.5483370000    -0.3317120000 
 C        5.0907980000     0.1282270000     0.6338040000 
 C        5.1593230000    -1.3001870000    -1.3783330000 
 C        6.3129290000    -1.9364570000    -1.2077040000 
 H        0.5682510000    -1.8145240000    -1.7594080000 
 H        0.5578720000    -0.7888640000    -0.4178700000 
 H        2.4834700000     0.0625730000     0.3935440000 
 H        4.5398490000     0.6598730000     1.4016910000 
 H        6.1714790000     0.1790960000     0.6702060000 
 H        4.6587230000    -1.3438940000    -2.3403990000 
 H        6.8110200000    -1.9710590000    -0.2444160000 
 H        6.7897180000    -2.4591460000    -2.0283970000 
*
