! RI PBE def2-SVP def2-SVP/J NBO PAL2
% maxcore 2000
% output
    # printlevel mini
    print[ P_Basis ] 0
    print[ P_SCFInfo ] 1
    print[ P_SCFIterInfo ] 1
    print[ P_OrbEn ] 0
    print[ P_Cartesian ] 0
end
*xyz 0 1
 N        0.8729940000    -0.8776780000     1.6868600000 
 N        2.1906920000    -1.1387180000     1.6726560000 
 C        2.9246270000    -0.5312250000     0.8282990000 
 C        4.3705240000    -0.7133500000     0.7949510000 
 C        5.1192060000    -0.0607820000    -0.1084570000 
 C        4.9702800000    -1.5989620000     1.7387450000 
 C        5.4860250000    -2.3425930000     2.5287490000 
 H        0.3465450000    -1.6262850000     2.1056870000 
 H        0.4659090000    -0.5207620000     0.8276850000 
 H        2.5043550000     0.1609460000     0.0883270000 
 H        4.6600450000     0.6126510000    -0.8229610000 
 H        6.1923910000    -0.1875820000    -0.1468420000 
 H        5.9383170000    -3.0012610000     3.2315010000 
*
