! RI PBE def2-SVP def2-SVP/J NBO PAL2
% maxcore 2000
% output
    # printlevel mini
    print[ P_Basis ] 0
    print[ P_SCFInfo ] 1
    print[ P_SCFIterInfo ] 1
    print[ P_OrbEn ] 0
    print[ P_Cartesian ] 0
end
*xyz 0 1
 N        0.9330820000     0.6072570000     0.0001350000 
 N        2.2604360000     0.5769310000    -0.1635150000 
 C        2.9897260000     0.3657340000     0.8692020000 
 C        4.3968360000     0.3817300000     0.7926760000 
 C        5.6068980000     0.3758260000     0.8059980000 
 C        7.0174730000     0.3833390000     0.7549680000 
 C        7.8193140000     0.1535330000     1.7974960000 
 H        0.4356060000     0.4371980000    -0.8573990000 
 H        0.5479180000     0.1375660000     0.8136040000 
 H        2.5416490000     0.1701500000     1.8507430000 
 H        7.4539140000     0.5953410000    -0.2183580000 
 H        7.4212380000    -0.0606130000     2.7820450000 
 H        8.8957010000     0.1763960000     1.6826470000 
*
