! RI PBE def2-SVP def2-SVP/J NBO PAL2
% maxcore 2000
% output
    # printlevel mini
    print[ P_Basis ] 0
    print[ P_SCFInfo ] 1
    print[ P_SCFIterInfo ] 1
    print[ P_OrbEn ] 0
    print[ P_Cartesian ] 0
end
*xyz 0 1
 N        0.8123310000    -0.1275870000     0.7067820000 
 N        2.1682390000    -0.1765470000     0.8151950000 
 C        2.8410010000     0.8484240000     0.4932710000 
 C        4.3185270000     0.8933550000     0.6740100000 
 C        4.7537980000     1.9428160000     1.7047200000 
 C        6.2351580000     1.9913070000     1.8763450000 
 C        6.9971700000     3.0516910000     1.6478340000 
 H        0.4367480000    -1.0529730000     0.5730060000 
 H        0.4590560000     0.5300230000     0.0168850000 
 H        2.3466010000     1.7455970000     0.0923250000 
 H        4.8005440000     1.1243360000    -0.2834520000 
 H        4.6574880000    -0.0995820000     0.9797380000 
 H        4.2805800000     1.6974960000     2.6628830000 
 H        4.3844700000     2.9312580000     1.4120870000 
 H        6.7055900000     1.0659690000     2.2065360000 
 H        6.5710820000     3.9939310000     1.3159770000 
 H        8.0716170000     3.0204980000     1.7872650000 
*
