! RI PBE def2-SVP def2-SVP/J NBO PAL2
% maxcore 2000
% output
    # printlevel mini
    print[ P_Basis ] 0
    print[ P_SCFInfo ] 1
    print[ P_SCFIterInfo ] 1
    print[ P_OrbEn ] 0
    print[ P_Cartesian ] 0
end
*xyz 0 1
 N        0.9908220000     0.9595780000     0.1332750000 
 N        2.3404420000     1.0044100000     0.2765630000 
 C        3.0703620000     0.7467590000    -0.7275320000 
 C        4.5529950000     0.8643200000    -0.6505680000 
 C        5.0878630000     1.9905300000    -1.5484370000 
 C        6.5380600000     2.0720110000    -1.5436970000 
 C        7.7375610000     2.1202580000    -1.5239620000 
 H        0.5455410000     0.7717130000     1.0171280000 
 H        0.6510370000     0.3521920000    -0.6071500000 
 H        2.6268860000     0.4503300000    -1.6893830000 
 H        5.0195820000    -0.0771240000    -0.9598010000 
 H        4.8387290000     1.0496100000     0.3860290000 
 H        4.6679920000     2.9456260000    -1.2170630000 
 H        4.7416970000     1.8406220000    -2.5773360000 
 H        8.8004320000     2.1694550000    -1.5088650000 
*
