! RI PBE def2-SVP def2-SVP/J NBO PAL2
% maxcore 2000
% output
    # printlevel mini
    print[ P_Basis ] 0
    print[ P_SCFInfo ] 1
    print[ P_SCFIterInfo ] 1
    print[ P_OrbEn ] 0
    print[ P_Cartesian ] 0
end
*xyz 0 1
 C       -1.5403130000     0.8562540000     0.6376560000 
 C       -1.3299830000    -0.3895520000    -0.1625480000 
 C       -0.2894350000    -1.4079120000     0.2793230000 
 C        1.0417560000    -0.6935370000     0.2381990000 
 O        1.1476710000     0.4265750000     1.1105070000 
 C        0.8405100000     0.6689560000    -0.2589740000 
 C       -0.6185880000     0.8881840000    -0.5448500000 
 H       -1.0890270000     0.9271850000     1.6184960000 
 H       -2.4979950000     1.3509860000     0.5292480000 
 H       -2.1640890000    -0.7468690000    -0.7548320000 
 H       -0.2615750000    -2.2403940000    -0.4304460000 
 H       -0.4916550000    -1.8291070000     1.2686020000 
 H        1.9621230000    -1.2556750000     0.1017530000 
 H        1.5934870000     1.2210090000    -0.8123550000 
 H       -0.8874790000     1.4553770000    -1.4266900000 
*
