! RI PBE def2-SVP def2-SVP/J NBO PAL2
% maxcore 2000
% output
    # printlevel mini
    print[ P_Basis ] 0
    print[ P_SCFInfo ] 1
    print[ P_SCFIterInfo ] 1
    print[ P_OrbEn ] 0
    print[ P_Cartesian ] 0
end
*xyz 0 1
 C        0.5574310000     1.2214230000     0.6848990000 
 C       -0.8710910000     0.7883340000     0.4405660000 
 C       -0.8789310000     0.0318570000    -0.8804760000 
 C        0.5450500000     0.0328000000    -1.3905400000 
 C        1.1943900000     0.0091250000    -0.0026840000 
 O        0.5432480000    -1.0939020000     0.6327610000 
 C       -0.7941230000    -0.7104050000     0.4211760000 
 H        0.8113370000     1.2692990000     1.7458050000 
 H        0.8212350000     2.1639770000     0.2005120000 
 H       -1.7338430000     1.3243410000     0.8095050000 
 H       -1.7477480000    -0.0103910000    -1.5216770000 
 H        0.8083790000     0.9263580000    -1.9604640000 
 H        0.7891830000    -0.8591920000    -1.9710720000 
 H        2.2728630000    -0.1105210000     0.0593530000 
 H       -1.5373810000    -1.3879040000     0.8134280000 
*
