! RI PBE def2-SVP def2-SVP/J NBO PAL2
% maxcore 2000
% output
    # printlevel mini
    print[ P_Basis ] 0
    print[ P_SCFInfo ] 1
    print[ P_SCFIterInfo ] 1
    print[ P_OrbEn ] 0
    print[ P_Cartesian ] 0
end
*xyz 0 1
 C        1.7624990000    -0.0001610000    -0.5088600000 
 C        0.8021880000     0.7550830000     0.3568420000 
 C        0.8020570000    -0.7552690000     0.3568180000 
 C       -0.6387500000    -0.9653290000    -0.1173330000 
 C       -0.8413030000     0.0000750000    -1.2887420000 
 C       -0.6385780000     0.9654130000    -0.1173080000 
 O       -1.3642500000     0.0000960000     0.7111690000 
 H        2.7931170000    -0.0002520000    -0.1709090000 
 H        1.6652860000    -0.0001320000    -1.5867090000 
 H        1.1613090000     1.3267350000     1.2024870000 
 H        1.1610790000    -1.3270090000     1.2024450000 
 H       -1.0537100000    -1.9713620000    -0.0894870000 
 H       -1.8824670000     0.0001700000    -1.6039420000 
 H       -0.1733350000     0.0000230000    -2.1485240000 
 H       -1.0533600000     1.9715190000    -0.0894360000 
*
