! RI PBE def2-SVP def2-SVP/J NBO PAL2
% maxcore 2000
% output
    # printlevel mini
    print[ P_Basis ] 0
    print[ P_SCFInfo ] 1
    print[ P_SCFIterInfo ] 1
    print[ P_OrbEn ] 0
    print[ P_Cartesian ] 0
end
*xyz 0 1
 C       -0.8250680000     0.0000500000    -1.3105560000 
 C       -0.6303330000     0.9669220000    -0.1377010000 
 O       -1.3257190000     0.0001060000     0.7116850000 
 C       -0.6305210000    -0.9668520000    -0.1376940000 
 C        0.8269580000    -0.7264600000     0.2987410000 
 O        1.6167700000    -0.0001860000    -0.6375990000 
 C        0.8271000000     0.7262490000     0.2987360000 
 H       -0.1186820000    -0.0000220000    -2.1364690000 
 H       -1.8619570000     0.0001500000    -1.6386040000 
 H       -1.0398020000     1.9739130000    -0.0942210000 
 H       -1.0401870000    -1.9737630000    -0.0942070000 
 H        1.3509420000    -1.3589780000     1.0043040000 
 H        1.3512070000     1.3586700000     1.0042950000 
*
