! RI PBE def2-SVP def2-SVP/J NBO PAL2
% maxcore 2000
% output
    # printlevel mini
    print[ P_Basis ] 0
    print[ P_SCFInfo ] 1
    print[ P_SCFIterInfo ] 1
    print[ P_OrbEn ] 0
    print[ P_Cartesian ] 0
end
*xyz 0 1
 C       -0.9838310000     0.0644870000     0.9225620000 
 C       -1.1935600000    -0.0438080000    -0.5915840000 
 O       -0.5209090000    -1.3418590000    -0.5430440000 
 C        0.2823490000    -0.6791830000     0.4842760000 
 C        1.0370640000     0.3541080000    -0.3731780000 
 O        0.5671430000     1.6921870000    -0.2438480000 
 C       -0.0716830000     0.8314210000    -1.1813950000 
 H       -1.6577160000    -0.6056930000     1.4512330000 
 H       -0.9041020000     1.0421110000     1.3905450000 
 H       -2.1657120000    -0.0636060000    -1.0795540000 
 H        0.8472620000    -1.3606830000     1.1167460000 
 H        2.0554890000     0.2169970000    -0.7144550000 
 H       -0.0186930000     1.1099300000    -2.2264230000 
*
