! RI PBE def2-SVP def2-SVP/J NBO PAL2
% maxcore 2000
% output
    # printlevel mini
    print[ P_Basis ] 0
    print[ P_SCFInfo ] 1
    print[ P_SCFIterInfo ] 1
    print[ P_OrbEn ] 0
    print[ P_Cartesian ] 0
end
*xyz 0 1
 C        0.5471450000     1.2263030000     0.7067720000 
 C       -0.8793490000     0.7948890000     0.4667630000 
 C       -0.8101450000     0.0324490000    -0.8400490000 
 O        0.5280100000     0.0353550000    -1.2750790000 
 C        1.1451650000     0.0080980000    -0.0029780000 
 O        0.5411710000    -1.0854970000     0.6616650000 
 C       -0.8010720000    -0.7176800000     0.4565930000 
 H        0.8225980000     1.2599980000     1.7611310000 
 H        0.8118510000     2.1590280000     0.2081520000 
 H       -1.7513940000     1.3437540000     0.7894690000 
 H       -1.5596490000    -0.0015900000    -1.6150590000 
 H        2.2201640000    -0.1167240000    -0.0822110000 
 H       -1.5434040000    -1.4104830000     0.8206320000 
*
