! RI PBE def2-SVP def2-SVP/J NBO PAL2
% maxcore 2000
% output
    # printlevel mini
    print[ P_Basis ] 0
    print[ P_SCFInfo ] 1
    print[ P_SCFIterInfo ] 1
    print[ P_OrbEn ] 0
    print[ P_Cartesian ] 0
end
*xyz 0 1
 C       -2.5137010000     0.4366470000     0.6604740000 
 C       -2.4961350000     0.3468290000    -0.8474300000 
 C       -1.2486320000     0.1517450000    -0.0645100000 
 C       -0.4836090000    -1.1640550000     0.0226230000 
 C        0.9358950000    -0.6743640000     0.0083050000 
 C        0.9251100000     0.6500570000    -0.0704010000 
 O       -0.3036610000     1.2206030000    -0.1171740000 
 H       -2.9667770000    -0.3696390000     1.2256450000 
 H       -2.6206840000     1.4226800000     1.0950900000 
 H       -2.5916570000     1.2741390000    -1.3984000000 
 H       -2.9370520000    -0.5214970000    -1.3232470000 
 H       -0.7094300000    -1.8221180000    -0.8237200000 
 H       -0.7279770000    -1.7164080000     0.9367190000 
 H        1.8168580000    -1.2953370000     0.0544400000 
 H        1.7492620000     1.3491070000    -0.1031130000 
*
