! RI PBE def2-SVP def2-SVP/J NBO PAL2
% maxcore 2000
% output
    # printlevel mini
    print[ P_Basis ] 0
    print[ P_SCFInfo ] 1
    print[ P_SCFIterInfo ] 1
    print[ P_OrbEn ] 0
    print[ P_Cartesian ] 0
end
*xyz 0 1
 C       -0.4025980000    -0.9942590000    -0.4923270000 
 C        0.8864740000    -1.0769820000    -1.2541100000 
 C        0.8084270000    -0.2655570000     0.0015950000 
 C        1.5296850000    -0.6829260000     1.2513390000 
 C        0.7723370000    -0.4880110000     2.5749500000 
 O        0.7297810000    -1.9006300000     2.8166900000 
 C        1.5123000000    -2.1659000000     1.6473100000 
 H       -0.7281710000    -1.8738200000     0.0506440000 
 H       -1.2103740000    -0.4102770000    -0.9151350000 
 H        0.9618910000    -0.5582910000    -2.2015290000 
 H        1.4308110000    -2.0138020000    -1.2157750000 
 H        0.7898010000     0.8112620000    -0.1420970000 
 H        2.5328140000    -0.2508380000     1.2546250000 
 H       -0.2310870000    -0.0601870000     2.4799470000 
 H        1.3212190000     0.0411860000     3.3615870000 
 H        1.0020770000    -2.8517830000     0.9626170000 
 H        2.4916240000    -2.5861740000     1.9002680000 
*
