! RI PBE def2-SVP def2-SVP/J NBO PAL2
% maxcore 2000
% output
    # printlevel mini
    print[ P_Basis ] 0
    print[ P_SCFInfo ] 1
    print[ P_SCFIterInfo ] 1
    print[ P_OrbEn ] 0
    print[ P_Cartesian ] 0
end
*xyz 0 1
 C        0.5568280000     0.2134850000    -1.3195160000 
 C       -0.4967790000    -0.4971040000    -0.5093180000 
 C        0.9375010000    -0.6931450000    -0.1908220000 
 O        1.3853590000    -0.1317630000     1.0003270000 
 C        2.7486380000     0.1432830000     0.9807660000 
 C        3.4281940000     0.1833080000     2.2974410000 
 C        3.7113360000    -0.9454000000     1.3396860000 
 H        0.6673930000     1.2771210000    -1.1480570000 
 H        0.7441330000    -0.1109670000    -2.3356570000 
 H       -1.0419710000    -1.3159100000    -0.9612050000 
 H       -1.0645570000     0.1026260000     0.1906750000 
 H        1.4002440000    -1.6467320000    -0.4373410000 
 H        3.0495370000     0.8580140000     0.2173200000 
 H        2.8149840000    -0.0470270000     3.1593920000 
 H        4.1901550000     0.9343100000     2.4626370000 
 H        3.2854280000    -1.9104000000     1.5852870000 
 H        4.6709860000    -0.9797000000     0.8388950000 
*
