! RI PBE def2-SVP def2-SVP/J NBO PAL2
% maxcore 2000
% output
    # printlevel mini
    print[ P_Basis ] 0
    print[ P_SCFInfo ] 1
    print[ P_SCFIterInfo ] 1
    print[ P_OrbEn ] 0
    print[ P_Cartesian ] 0
end
*xyz 0 1
 C       -1.2610260000    -0.7853200000    -0.5152410000 
 C       -1.2325590000     0.7660860000    -0.5239480000 
 C        0.0119390000     1.0623820000     0.3120350000 
 C       -0.0253280000    -0.0317410000     1.3711270000 
 C       -0.0171450000    -1.1394050000     0.3133090000 
 C        1.2087510000    -0.7125560000    -0.4877670000 
 O        1.1622460000     0.7185410000    -0.4617950000 
 H       -1.2160930000    -1.2132570000    -1.5191510000 
 H       -2.1665370000    -1.1657810000    -0.0366260000 
 H       -2.1293580000     1.1957680000    -0.0701250000 
 H       -1.1275830000     1.1859510000    -1.5252050000 
 H        0.1233550000     2.0927520000     0.6483550000 
 H       -0.9324740000    -0.0208180000     1.9789450000 
 H        0.8563100000    -0.0262020000     2.0145580000 
 H        0.0226580000    -2.1681550000     0.6715190000 
 H        1.1779310000    -1.0643050000    -1.5246650000 
 H        2.1460030000    -1.0527500000    -0.0316040000 
*
