! RI PBE def2-SVP def2-SVP/J NBO PAL2
% maxcore 2000
% output
    # printlevel mini
    print[ P_Basis ] 0
    print[ P_SCFInfo ] 1
    print[ P_SCFIterInfo ] 1
    print[ P_OrbEn ] 0
    print[ P_Cartesian ] 0
end
*xyz 0 1
 C        1.6974330000     0.1467510000    -0.8701770000 
 C        1.9448760000    -0.0938600000     0.5930310000 
 C        0.5500850000     0.0123270000     0.0834270000 
 C       -0.3702130000     1.1761550000     0.3613500000 
 C       -1.5948980000     0.7535330000    -0.4319720000 
 O       -1.6679140000    -0.6573670000    -0.2981070000 
 C       -0.3839840000    -1.1763710000     0.0177060000 
 H        1.8885100000    -0.6699550000    -1.5567190000 
 H        1.9186180000     1.1308730000    -1.2673330000 
 H        2.3354370000     0.7246120000     1.1864140000 
 H        2.3050110000    -1.0722830000     0.8906460000 
 H        0.0399210000     2.1364210000     0.0436680000 
 H       -0.6084410000     1.2343400000     1.4284940000 
 H       -1.4842950000     1.0287230000    -1.4903340000 
 H       -2.5300340000     1.1788380000    -0.0608540000 
 H       -0.0775230000    -1.9039710000    -0.7424990000 
 H       -0.4453970000    -1.6935780000     0.9837470000 
*
