! RI PBE def2-SVP def2-SVP/J NBO PAL2
% maxcore 2000
% output
    # printlevel mini
    print[ P_Basis ] 0
    print[ P_SCFInfo ] 1
    print[ P_SCFIterInfo ] 1
    print[ P_OrbEn ] 0
    print[ P_Cartesian ] 0
end
*xyz 0 1
 C       -1.2480040000    -0.7744750000    -0.5370390000 
 C       -1.2510590000     0.7721520000    -0.5300690000 
 C       -0.0020360000     1.0631180000     0.3097180000 
 C        1.2570880000     0.7765710000    -0.5164790000 
 C        1.2601390000    -0.7700590000    -0.5226100000 
 C        0.0018400000    -1.0680880000     0.3006890000 
 O       -0.0053900000    -0.0065140000     1.2539250000 
 H       -1.1874450000    -1.2022860000    -1.5393750000 
 H       -2.1387590000    -1.1752380000    -0.0512690000 
 H       -2.1430420000     1.1648700000    -0.0399820000 
 H       -1.1929690000     1.2093110000    -1.5285040000 
 H       -0.0065770000     2.0165810000     0.8362260000 
 H        2.1423500000     1.1731510000    -0.0174160000 
 H        1.2076940000     1.2128810000    -1.5157590000 
 H        2.1466180000    -1.1669670000    -0.0259560000 
 H        1.2132110000    -1.1987210000    -1.5253080000 
 H        0.0005510000    -2.0259880000     0.8190990000 
*
