! RI PBE def2-SVP def2-SVP/J NBO PAL2
% maxcore 2000
% output
    # printlevel mini
    print[ P_Basis ] 0
    print[ P_SCFInfo ] 1
    print[ P_SCFIterInfo ] 1
    print[ P_OrbEn ] 0
    print[ P_Cartesian ] 0
end
*xyz 0 1
 C       -1.7919960000     0.6849040000     0.2970810000 
 C       -1.6944800000    -0.7237060000    -0.3879840000 
 C       -0.2366480000    -0.6835730000     0.1022540000 
 O        0.9920690000    -1.0778760000    -0.4480230000 
 C        1.8940910000    -0.0417590000     0.0127870000 
 C        1.0617800000     1.1552860000     0.6067740000 
 C       -0.2744270000     0.8002460000    -0.0037220000 
 H       -2.0191880000     0.5950760000     1.3609740000 
 H       -2.4531200000     1.4222200000    -0.1560220000 
 H       -1.7766270000    -0.6297570000    -1.4721920000 
 H       -2.3394100000    -1.5259580000    -0.0296560000 
 H       -0.2669620000    -0.9709670000     1.1672800000 
 H        2.4921860000     0.2732940000    -0.8455380000 
 H        2.5658730000    -0.4628300000     0.7665730000 
 H        1.4852300000     2.1161730000     0.3096980000 
 H        1.0430000000     1.1065250000     1.6979090000 
 H       -0.2165700000     1.0198120000    -1.0772920000 
*
