! RI PBE def2-SVP def2-SVP/J NBO PAL2
% maxcore 2000
% output
    # printlevel mini
    print[ P_Basis ] 0
    print[ P_SCFInfo ] 1
    print[ P_SCFIterInfo ] 1
    print[ P_OrbEn ] 0
    print[ P_Cartesian ] 0
end
*xyz 0 1
 C        1.5686530000    -0.0431840000     0.3109930000 
 C        0.8858050000    -1.4228360000     0.4551810000 
 C       -0.2597830000    -0.9290910000    -0.4573060000 
 C       -1.4056740000    -0.2332020000     0.2155380000 
 C       -1.2754450000     1.0798180000     0.0486420000 
 O       -0.1774270000     1.4816200000    -0.6445850000 
 C        0.6050780000     0.2990730000    -0.8365430000 
 H        2.6333510000    -0.0369980000     0.0750490000 
 H        1.3950570000     0.6094490000     1.1672930000 
 H        0.6075850000    -1.7292790000     1.4647300000 
 H        1.4605400000    -2.2272840000    -0.0083270000 
 H       -0.5839390000    -1.6196080000    -1.2417160000 
 H       -2.2309780000    -0.7179790000     0.7157330000 
 H       -1.9254790000     1.8816510000     0.3722380000 
 H        1.0447690000     0.3390480000    -1.8325210000 
*
