! RI PBE def2-SVP def2-SVP/J NBO PAL2
% maxcore 2000
% output
    # printlevel mini
    print[ P_Basis ] 0
    print[ P_SCFInfo ] 1
    print[ P_SCFIterInfo ] 1
    print[ P_OrbEn ] 0
    print[ P_Cartesian ] 0
end
*xyz 0 1
 C        1.8967280000     0.0555610000    -0.7465850000 
 O        1.6953800000    -0.1032910000     0.6506760000 
 C        0.5552410000     0.0413190000    -0.1814670000 
 C       -0.3281230000     1.2578420000     0.0315880000 
 C       -1.7299450000     0.6755410000    -0.1288610000 
 O       -1.6148030000    -0.6850710000     0.2440570000 
 C       -0.3965090000    -1.1331100000    -0.3057930000 
 H        2.2753850000    -0.8241100000    -1.2643680000 
 H        2.3424840000     1.0004120000    -1.0500360000 
 H       -0.1190080000     2.0678720000    -0.6683670000 
 H       -0.1688840000     1.6262310000     1.0471360000 
 H       -2.0695980000     0.7536540000    -1.1728130000 
 H       -2.4776190000     1.1397120000     0.5143800000 
 H       -0.5310460000    -1.4066850000    -1.3640860000 
 H       -0.0486820000    -2.0047680000     0.2497310000 
*
