! RI PBE def2-SVP def2-SVP/J NBO PAL2
% maxcore 2000
% output
    # printlevel mini
    print[ P_Basis ] 0
    print[ P_SCFInfo ] 1
    print[ P_SCFIterInfo ] 1
    print[ P_OrbEn ] 0
    print[ P_Cartesian ] 0
end
*xyz 0 1
 C        0.3280910000     1.4448050000     0.3603690000 
 C        1.3661020000     0.3422910000     0.0615740000 
 C        0.5038540000    -0.6496580000    -0.7637110000 
 O       -0.3313480000     0.2454780000    -1.4914680000 
 C       -0.9221490000     0.8649250000    -0.3531700000 
 C       -1.3663480000    -0.3290910000     0.4644250000 
 C       -0.4727860000    -1.2781620000     0.2071760000 
 H        0.6136190000     2.3917790000    -0.0997390000 
 H        0.1618150000     1.6136470000     1.4249180000 
 H        1.7895570000    -0.1154020000     0.9563530000 
 H        2.1834450000     0.7244790000    -0.5515050000 
 H        1.0461630000    -1.3091930000    -1.4379580000 
 H       -1.6796530000     1.5859370000    -0.6532110000 
 H       -2.1720300000    -0.3368060000     1.1858370000 
 H       -0.3692100000    -2.2516190000     0.6668200000 
*
