! RI PBE def2-SVP def2-SVP/J NBO PAL2
% maxcore 2000
% output
    # printlevel mini
    print[ P_Basis ] 0
    print[ P_SCFInfo ] 1
    print[ P_SCFIterInfo ] 1
    print[ P_OrbEn ] 0
    print[ P_Cartesian ] 0
end
*xyz 0 1
 C       -0.3706710000    -1.0259100000     1.1734590000 
 C        0.8015150000    -1.2698710000     0.1994220000 
 C        0.8938720000     0.1156790000    -0.4935600000 
 O        0.5765840000     0.9890390000     0.5858160000 
 C       -0.7164200000     0.4508490000     0.8445760000 
 C       -1.3415530000     0.4472950000    -0.5340670000 
 C       -0.3325080000     0.2372730000    -1.3725700000 
 H       -0.0461740000    -1.1100700000     2.2115350000 
 H       -1.2157670000    -1.6978970000     1.0196060000 
 H        0.6224980000    -2.0805220000    -0.5078400000 
 H        1.7265310000    -1.4789360000     0.7385150000 
 H        1.8582380000     0.3703400000    -0.9281210000 
 H       -1.2198450000     1.0110150000     1.6297340000 
 H       -2.4008970000     0.4881790000    -0.7479300000 
 H       -0.3650830000     0.0644470000    -2.4396630000 
*
