! RI PBE def2-SVP def2-SVP/J NBO PAL2
% maxcore 2000
% output
    # printlevel mini
    print[ P_Basis ] 0
    print[ P_SCFInfo ] 1
    print[ P_SCFIterInfo ] 1
    print[ P_OrbEn ] 0
    print[ P_Cartesian ] 0
end
*xyz 0 1
 C       -1.2818260000    -0.7759850000    -0.4951840000 
 C       -1.2253920000     0.7693540000    -0.5400420000 
 C        0.0454430000     1.0113110000     0.2735990000 
 O        1.1710180000     0.6817990000    -0.5248980000 
 C        1.2097910000    -0.7464820000    -0.5066030000 
 C       -0.0259920000    -1.0787150000     0.3277120000 
 O        0.0018020000     0.0085250000     1.2576530000 
 H       -1.2519440000    -1.2382280000    -1.4831900000 
 H       -2.1729800000    -1.1318420000     0.0229830000 
 H       -2.0911820000     1.2250170000    -0.0566910000 
 H       -1.1322410000     1.1749240000    -1.5472750000 
 H        0.1847010000     1.9956360000     0.7166200000 
 H        2.1356980000    -1.0813510000    -0.0296070000 
 H        1.1585830000    -1.1425120000    -1.5249050000 
 H       -0.0020990000    -2.0309610000     0.8531070000 
*
