! RI PBE def2-SVP def2-SVP/J NBO PAL2
% maxcore 2000
% output
    # printlevel mini
    print[ P_Basis ] 0
    print[ P_SCFInfo ] 1
    print[ P_SCFIterInfo ] 1
    print[ P_OrbEn ] 0
    print[ P_Cartesian ] 0
end
*xyz 0 1
 C       -1.7045570000     0.6708480000     0.3586530000 
 O       -1.7265270000    -0.6418700000    -0.2850670000 
 C       -0.3073460000    -0.7229220000     0.0288330000 
 C        0.9654850000    -1.1223850000    -0.6686110000 
 C        1.8588970000     0.0015120000    -0.0035320000 
 O        1.0113720000     1.0731210000     0.5111600000 
 C       -0.2239920000     0.7459980000    -0.0611750000 
 H       -1.8712000000     0.5801560000     1.4372840000 
 H       -2.4145680000     1.3592940000    -0.0995130000 
 H       -0.2335170000    -1.0322540000     1.0821610000 
 H        0.9079260000    -0.9873020000    -1.7497070000 
 H        1.3531540000    -2.1172890000    -0.4468120000 
 H        2.5553290000     0.4224760000    -0.7325820000 
 H        2.4287260000    -0.3917580000     0.8403740000 
 H       -0.2416820000     1.0448860000    -1.1189430000 
*
