! RI PBE def2-SVP def2-SVP/J NBO PAL2
% maxcore 2000
% output
    # printlevel mini
    print[ P_Basis ] 0
    print[ P_SCFInfo ] 1
    print[ P_SCFIterInfo ] 1
    print[ P_OrbEn ] 0
    print[ P_Cartesian ] 0
end
*xyz 0 1
 C       -0.1739170000    -0.9850890000    -0.7014690000 
 O        1.1615720000    -1.1134370000    -1.1626390000 
 C        0.9261110000    -0.3293860000    -0.0012390000 
 C        1.5097790000    -0.8047420000     1.2901860000 
 C        0.8764880000    -0.3090010000     2.6088330000 
 C        1.1986860000    -1.6857310000     3.2196400000 
 C        1.3117450000    -2.2490210000     1.7896020000 
 H       -0.6128300000    -1.8936200000    -0.2990300000 
 H       -0.8300230000    -0.3936770000    -1.3361960000 
 H        1.0403100000     0.7427380000    -0.1732780000 
 H        2.5796950000    -0.5682490000     1.2900490000 
 H       -0.2015000000    -0.1681280000     2.4927360000 
 H        1.2991150000     0.5794600000     3.0803240000 
 H        0.4604660000    -2.1323150000     3.8867950000 
 H        2.1665830000    -1.6801910000     3.7254160000 
 H        0.3595770000    -2.6663450000     1.4562050000 
 H        2.1012430000    -2.9694560000     1.5762650000 
*
