! RI PBE def2-SVP def2-SVP/J NBO PAL2
% maxcore 2000
% output
    # printlevel mini
    print[ P_Basis ] 0
    print[ P_SCFInfo ] 1
    print[ P_SCFIterInfo ] 1
    print[ P_OrbEn ] 0
    print[ P_Cartesian ] 0
end
*xyz 0 1
 C       -1.4700820000     0.7776140000    -0.0594500000 
 C       -1.4708630000    -0.7775540000     0.0589370000 
 C       -0.1808370000    -1.4521880000     0.6327410000 
 C        0.8169920000    -0.6957670000    -0.1934450000 
 O        2.0532470000    -0.0018190000    -0.0008600000 
 C        0.8177950000     0.6934240000     0.1921800000 
 C       -0.1795320000     1.4509360000    -0.6336250000 
 H       -1.6355590000     1.1982380000     0.9384770000 
 H       -2.3388020000     1.0722650000    -0.6549330000 
 H       -1.6370620000    -1.1980090000    -0.9389430000 
 H       -2.3397100000    -1.0713130000     0.6546740000 
 H       -0.2172000000    -2.5331130000     0.4699130000 
 H       -0.0666320000    -1.2643690000     1.7023530000 
 H        0.6667750000    -0.8772060000    -1.2584740000 
 H        0.6681660000     0.8750160000     1.2572670000 
 H       -0.0658790000     1.2630640000    -1.7032860000 
 H       -0.2147180000     2.5318900000    -0.4707250000 
*
