! RI PBE def2-SVP def2-SVP/J NBO PAL2
% maxcore 2000
% output
    # printlevel mini
    print[ P_Basis ] 0
    print[ P_SCFInfo ] 1
    print[ P_SCFIterInfo ] 1
    print[ P_OrbEn ] 0
    print[ P_Cartesian ] 0
end
*xyz 0 1
 C       -0.0782160000     1.4575870000     0.6140790000 
 C       -1.3826970000     0.7339610000     0.2529620000 
 C       -1.4756650000    -0.4983200000    -0.2787780000 
 C       -0.3001210000    -1.4457260000    -0.5547400000 
 C        0.7383550000    -0.7670560000     0.2900130000 
 O        2.0340300000    -0.1950400000     0.1067640000 
 C        0.8774140000     0.5985610000    -0.1615230000 
 H        0.0925730000     1.4404120000     1.6947860000 
 H       -0.1189190000     2.5047540000     0.2984350000 
 H       -2.3060130000     1.2860370000     0.4071880000 
 H       -2.4701370000    -0.8771900000    -0.4991670000 
 H       -0.0555090000    -1.4656440000    -1.6211230000 
 H       -0.5489730000    -2.4668590000    -0.2494560000 
 H        0.5277860000    -0.8824900000     1.3523090000 
 H        0.7643910000     0.7432120000    -1.2350390000 
*
