! RI PBE def2-SVP def2-SVP/J NBO PAL2
% maxcore 2000
% output
    # printlevel mini
    print[ P_Basis ] 0
    print[ P_SCFInfo ] 1
    print[ P_SCFIterInfo ] 1
    print[ P_OrbEn ] 0
    print[ P_Cartesian ] 0
end
*xyz 0 1
 C        0.8636960000    -1.1119680000     0.3226030000 
 C       -0.5162450000    -1.6303440000    -0.0493340000 
 C       -1.5665480000    -0.5830030000    -0.2399760000 
 C       -1.4511850000     0.7302270000    -0.0654830000 
 C       -0.2292210000     1.4626770000     0.4128510000 
 C        1.0524100000     1.1772480000    -0.3635110000 
 O        1.3284780000    -0.1818280000    -0.6234640000 
 H        1.5748710000    -1.9431000000     0.3205370000 
 H        0.8685410000    -0.6947790000     1.3363660000 
 H       -0.8491620000    -2.3546990000     0.7068350000 
 H       -0.4274950000    -2.2010000000    -0.9822140000 
 H       -2.5304160000    -0.9584330000    -0.5768840000 
 H       -2.3299110000     1.3379980000    -0.2630750000 
 H       -0.0731530000     1.2618110000     1.4779610000 
 H       -0.3987870000     2.5413490000     0.3486350000 
 H        1.8954730000     1.6315540000     0.1785760000 
 H        0.9992520000     1.6535690000    -1.3465130000 
*
