! RI PBE def2-SVP def2-SVP/J NBO PAL2
% maxcore 2000
% output
    # printlevel mini
    print[ P_Basis ] 0
    print[ P_SCFInfo ] 1
    print[ P_SCFIterInfo ] 1
    print[ P_OrbEn ] 0
    print[ P_Cartesian ] 0
end
*xyz 0 1
 C       -1.3923220000     0.6408890000     0.1317570000 
 C       -1.4317500000    -0.8409610000    -0.2217460000 
 C       -0.2904860000    -1.6244500000     0.3314180000 
 C        0.9582580000    -1.1619670000     0.4574880000 
 C        1.4748270000     0.1276460000     0.0440390000 
 C        0.8370100000     1.1959330000    -0.4600480000 
 O       -0.4755440000     1.4110990000    -0.6261980000 
 H       -1.1627680000     0.7627640000     1.1952860000 
 H       -2.3606210000     1.1000780000    -0.0712830000 
 H       -1.4869330000    -0.9345410000    -1.3129050000 
 H       -2.3741300000    -1.2473760000     0.1608490000 
 H       -0.5025040000    -2.6305290000     0.6795740000 
 H        1.6971050000    -1.8323620000     0.8869560000 
 H        2.5515740000     0.2462230000     0.0968530000 
 H        1.4068830000     2.0497560000    -0.8116380000 
*
