! RI PBE def2-SVP def2-SVP/J NBO PAL2
% maxcore 2000
% output
    # printlevel mini
    print[ P_Basis ] 0
    print[ P_SCFInfo ] 1
    print[ P_SCFIterInfo ] 1
    print[ P_OrbEn ] 0
    print[ P_Cartesian ] 0
end
*xyz 0 1
 C        1.6877130000    -0.0788530000     0.0111670000 
 C        0.8177100000    -1.2206520000     0.5331560000 
 C       -0.4096710000    -1.5151490000    -0.3240270000 
 C       -1.4861960000    -0.4733650000    -0.1941810000 
 C       -1.3334610000     0.8189960000     0.0897370000 
 O       -0.1792570000     1.5209000000     0.1861090000 
 C        0.8965950000     1.0505250000    -0.6159140000 
 H        2.3776350000    -0.4481470000    -0.7568240000 
 H        2.3080390000     0.3087240000     0.8246820000 
 H        0.4707660000    -0.9775090000     1.5417040000 
 H        1.4300460000    -2.1225740000     0.6262900000 
 H       -0.8356020000    -2.4720630000    -0.0076500000 
 H       -0.1186570000    -1.6635570000    -1.3727620000 
 H       -2.5145880000    -0.8102510000    -0.2709280000 
 H       -2.1930240000     1.4551520000     0.2771840000 
 H        1.5393400000     1.9177880000    -0.7839380000 
 H        0.4870230000     0.7415350000    -1.5845160000 
*
