! RI PBE def2-SVP def2-SVP/J NBO PAL2
% maxcore 2000
% output
    # printlevel mini
    print[ P_Basis ] 0
    print[ P_SCFInfo ] 1
    print[ P_SCFIterInfo ] 1
    print[ P_OrbEn ] 0
    print[ P_Cartesian ] 0
end
*xyz 0 1
 C       -1.5765750000     0.7590810000     0.1737860000 
 C       -1.4853730000    -0.6931690000    -0.2878520000 
 C       -0.3653880000    -1.4662180000     0.4027200000 
 C        1.0136640000    -1.2865880000    -0.2257820000 
 O        1.2769990000    -0.0083610000    -0.7528580000 
 C        0.9677100000     1.0870410000     0.0798160000 
 C       -0.4090730000     1.6477030000    -0.2333670000 
 H       -1.6680960000     0.7620770000     1.2676140000 
 H       -2.5025690000     1.2023820000    -0.2068690000 
 H       -1.3579700000    -0.7372320000    -1.3752850000 
 H       -2.4390540000    -1.1820120000    -0.0664940000 
 H       -0.5822630000    -2.5395350000     0.3952550000 
 H       -0.3415440000    -1.1763360000     1.4589950000 
 H        1.1202450000    -1.9615980000    -1.0793570000 
 H        1.7874910000    -1.5628330000     0.5069390000 
 H        1.7255720000     1.8508210000    -0.1201570000 
 H        1.0574930000     0.8145300000     1.1411150000 
 H       -0.4408580000     1.8306740000    -1.3130520000 
 H       -0.5107090000     2.6248720000     0.2528450000 
*
