! RI PBE def2-SVP def2-SVP/J NBO PAL2
% maxcore 2000
% output
    # printlevel mini
    print[ P_Basis ] 0
    print[ P_SCFInfo ] 1
    print[ P_SCFIterInfo ] 1
    print[ P_OrbEn ] 0
    print[ P_Cartesian ] 0
end
*xyz 0 1
 C       -1.4923110000     0.7580560000     0.0698680000 
 C       -1.4932590000    -0.7582170000    -0.0724480000 
 C       -0.2218290000    -1.4311290000     0.4164050000 
 O        0.8694560000    -1.0913000000    -0.4216840000 
 C        1.6269960000    -0.0025010000     0.0042310000 
 O        0.8697110000     1.0876310000     0.4272950000 
 C       -0.2181580000     1.4290170000    -0.4145790000 
 H       -1.6224010000     1.0339900000     1.1219450000 
 H       -2.3451240000     1.1797250000    -0.4730810000 
 H       -1.6201400000    -1.0339520000    -1.1249680000 
 H       -2.3486040000    -1.1785470000     0.4675480000 
 H       -0.3284500000    -2.5173140000     0.3565830000 
 H       -0.0061760000    -1.1685010000     1.4596350000 
 H        2.2594190000     0.2528060000    -0.8563910000 
 H        2.2557240000    -0.2588660000     0.8672460000 
 H        0.0007080000     1.1660520000    -1.4570540000 
 H       -0.3233730000     2.5153610000    -0.3551480000 
*
