! RI PBE def2-SVP def2-SVP/J NBO PAL2
% maxcore 2000
% output
    # printlevel mini
    print[ P_Basis ] 0
    print[ P_SCFInfo ] 1
    print[ P_SCFIterInfo ] 1
    print[ P_OrbEn ] 0
    print[ P_Cartesian ] 0
end
*xyz 0 1
 C        1.9289670000     0.0443320000    -0.5850580000 
 C        1.6095810000    -0.1339620000     0.8824890000 
 C        0.5239750000     0.0884280000    -0.1267000000 
 C       -0.3594540000     1.3232940000    -0.1169990000 
 C       -1.7782010000     0.7347390000     0.0043100000 
 C       -1.5192320000    -0.7608630000     0.1859480000 
 O       -0.2862140000    -1.0033910000    -0.4632190000 
 H        2.2375070000    -0.8363830000    -1.1345220000 
 H        2.3916850000     0.9702880000    -0.9053370000 
 H        1.8603800000     0.6694200000     1.5654870000 
 H        1.7075600000    -1.1341060000     1.2864160000 
 H       -0.2481690000     1.8904170000    -1.0436360000 
 H       -0.1087990000     1.9872770000     0.7116330000 
 H       -2.3464560000     0.9130820000    -0.9099990000 
 H       -2.3444100000     1.1569600000     0.8357880000 
 H       -2.2736860000    -1.4009660000    -0.2727740000 
 H       -1.4411340000    -1.0168660000     1.2523620000 
*
