! RI PBE def2-SVP def2-SVP/J NBO PAL2
% maxcore 2000
% output
    # printlevel mini
    print[ P_Basis ] 0
    print[ P_SCFInfo ] 1
    print[ P_SCFIterInfo ] 1
    print[ P_OrbEn ] 0
    print[ P_Cartesian ] 0
end
*xyz 0 1
 C       -1.6503660000     0.8524860000     0.5158070000 
 C       -1.1439120000    -0.3067590000    -0.2946240000 
 C       -0.3164960000    -1.4005290000     0.3386710000 
 C        1.0812480000    -1.3604930000    -0.2760910000 
 C        1.6987990000     0.0426760000    -0.1305270000 
 O        0.7820210000     1.0026010000     0.3747480000 
 C       -0.4235430000     1.0076340000    -0.3142030000 
 H       -1.5071900000     0.8199120000     1.5894590000 
 H       -2.5516540000     1.3536030000     0.1851790000 
 H       -1.7115030000    -0.5814250000    -1.1774760000 
 H       -0.7740870000    -2.3795190000     0.1801150000 
 H       -0.2536250000    -1.2510830000     1.4194780000 
 H        1.0028700000    -1.6287550000    -1.3336430000 
 H        1.7329680000    -2.1048000000     0.1884730000 
 H        2.1054500000     0.3889820000    -1.0901100000 
 H        2.5186030000     0.0361010000     0.5900080000 
 H       -0.4484730000     1.6395800000    -1.2006640000 
*
