! RI PBE def2-SVP def2-SVP/J NBO PAL2
% maxcore 2000
% output
    # printlevel mini
    print[ P_Basis ] 0
    print[ P_SCFInfo ] 1
    print[ P_SCFIterInfo ] 1
    print[ P_OrbEn ] 0
    print[ P_Cartesian ] 0
end
*xyz 0 1
 C        1.8683370000     0.0205970000    -0.6534780000 
 C        1.5795680000    -0.0400400000     0.8454980000 
 C        0.4837120000     0.0017580000    -0.1662700000 
 O       -0.3154750000     1.1412560000    -0.2728960000 
 C       -1.6622910000     0.7257330000    -0.0991890000 
 C       -1.5461480000    -0.7633920000     0.2126450000 
 O       -0.3126070000    -1.1096480000    -0.3881550000 
 H        2.2420710000    -0.8760430000    -1.1315240000 
 H        2.2377000000     0.9552040000    -1.0558800000 
 H        1.7679050000     0.8555490000     1.4241460000 
 H        1.7689120000    -0.9795860000     1.3498270000 
 H       -2.2126040000     0.9083640000    -1.0272190000 
 H       -2.1294160000     1.2907610000     0.7118100000 
 H       -2.3334260000    -1.3714660000    -0.2316460000 
 H       -1.5104300000    -0.9439460000     1.2945310000 
*
