! RI PBE def2-SVP def2-SVP/J NBO PAL2
% maxcore 2000
% output
    # printlevel mini
    print[ P_Basis ] 0
    print[ P_SCFInfo ] 1
    print[ P_SCFIterInfo ] 1
    print[ P_OrbEn ] 0
    print[ P_Cartesian ] 0
end
*xyz 0 1
 C        0.2944960000     1.4077780000     0.5058820000 
 O        1.1001840000     0.4412460000    -0.1602670000 
 C        0.1859360000    -0.3463860000    -0.9621170000 
 C       -0.8030440000     0.7118390000    -1.4326440000 
 C       -1.1411330000     1.1005380000     0.0179900000 
 C       -1.4647660000    -0.2550800000     0.5978880000 
 C       -0.6654220000    -1.1413100000     0.0020920000 
 H        0.6130200000     2.4128030000     0.2084020000 
 H        0.4004210000     1.3041830000     1.5898380000 
 H        0.7685860000    -0.8903810000    -1.7016990000 
 H       -1.6591170000     0.3047750000    -1.9691100000 
 H       -0.3245960000     1.5078180000    -2.0073710000 
 H       -1.8603620000     1.9011260000     0.1807460000 
 H       -2.1299430000    -0.4265750000     1.4350090000 
 H       -0.5323690000    -2.1861830000     0.2493910000 
*
