! RI PBE def2-SVP def2-SVP/J NBO PAL2
% maxcore 2000
% output
    # printlevel mini
    print[ P_Basis ] 0
    print[ P_SCFInfo ] 1
    print[ P_SCFIterInfo ] 1
    print[ P_OrbEn ] 0
    print[ P_Cartesian ] 0
end
*xyz 0 1
 C       -1.2271540000    -0.7316470000    -0.4918600000 
 O       -1.1563710000     0.7015490000    -0.4733300000 
 C       -0.0051320000     1.0031270000     0.2820500000 
 C       -0.0116600000    -0.0471350000     1.3800930000 
 C       -0.0055870000    -1.1541920000     0.3227130000 
 C        1.2255100000    -0.7318940000    -0.4775140000 
 O        1.1548040000     0.7013160000    -0.4598120000 
 H       -1.1901830000    -1.0861410000    -1.5264050000 
 H       -2.1693800000    -1.0573220000    -0.0373870000 
 H       -0.0064800000     2.0613820000     0.5307950000 
 H       -0.9134930000    -0.0222820000     1.9920790000 
 H        0.8829580000    -0.0224630000     2.0025870000 
 H       -0.0076870000    -2.1879750000     0.6639620000 
 H        1.2005730000    -1.0863830000    -1.5124210000 
 H        2.1622900000    -1.0577590000    -0.0120510000 
*
