! RI PBE def2-SVP def2-SVP/J NBO PAL2
% maxcore 2000
% output
    # printlevel mini
    print[ P_Basis ] 0
    print[ P_SCFInfo ] 1
    print[ P_SCFIterInfo ] 1
    print[ P_OrbEn ] 0
    print[ P_Cartesian ] 0
end
*xyz 0 1
 C        1.5617750000    -0.4373390000     0.2393890000 
 O        0.7738750000    -1.5773680000    -0.1345310000 
 C       -0.1822120000    -0.7271680000    -0.8027010000 
 C       -1.4127590000    -0.4473340000     0.0003120000 
 C       -1.3835790000     0.7703800000     0.5335160000 
 C       -0.1476000000     1.5449500000     0.1720340000 
 C        0.6942430000     0.5208990000    -0.5864040000 
 H        2.6019970000    -0.5485660000    -0.0803130000 
 H        1.5330440000    -0.2556930000     1.3205460000 
 H       -0.3794520000    -1.0884960000    -1.8167870000 
 H       -2.2090520000    -1.1704760000     0.1305500000 
 H       -2.1628870000     1.1852130000     1.1639440000 
 H        0.3670770000     1.9344540000     1.0580790000 
 H       -0.3937830000     2.4157830000    -0.4459620000 
 H        1.1912930000     0.9217720000    -1.4681730000 
*
