! RI PBE def2-SVP def2-SVP/J NBO PAL2
% maxcore 2000
% output
    # printlevel mini
    print[ P_Basis ] 0
    print[ P_SCFInfo ] 1
    print[ P_SCFIterInfo ] 1
    print[ P_OrbEn ] 0
    print[ P_Cartesian ] 0
end
*xyz 0 1
 C        0.3729290000     1.3102250000     0.4530660000 
 O        1.2688470000     0.2423310000     0.1671890000 
 C        0.5115890000    -0.6109150000    -0.7083710000 
 O       -0.2558030000     0.2882110000    -1.4586120000 
 C       -0.8963950000     0.8731960000    -0.3214580000 
 C       -1.4150090000    -0.3404170000     0.4151870000 
 C       -0.5250430000    -1.2951940000     0.1622460000 
 H        0.7777350000     2.2415910000     0.0492840000 
 H        0.2119660000     1.4036490000     1.5298750000 
 H        1.1865300000    -1.1999650000    -1.3229380000 
 H       -1.5907610000     1.6581960000    -0.6081290000 
 H       -2.2458110000    -0.3504100000     1.1069140000 
 H       -0.4445750000    -2.2850980000     0.5877450000 
*
