! RI PBE def2-SVP def2-SVP/J NBO PAL2
% maxcore 2000
% output
    # printlevel mini
    print[ P_Basis ] 0
    print[ P_SCFInfo ] 1
    print[ P_SCFIterInfo ] 1
    print[ P_OrbEn ] 0
    print[ P_Cartesian ] 0
end
*xyz 0 1
 C       -0.2631200000    -0.9922930000    -0.5687180000 
 O        1.0148950000    -1.2251190000    -1.1433820000 
 C        0.9289050000    -0.3412880000    -0.0378120000 
 C        1.5946820000    -0.7569070000     1.2398450000 
 C        0.8116650000    -0.3987360000     2.5133310000 
 O        0.4621620000    -1.7704150000     2.7328260000 
 C        1.3614640000    -2.1972870000     1.6986700000 
 H       -0.6992590000    -1.8350680000    -0.0388300000 
 H       -0.9519580000    -0.4218920000    -1.1866200000 
 H        1.0776090000     0.7062270000    -0.3025510000 
 H        2.6388470000    -0.4395560000     1.2298530000 
 H       -0.0704600000     0.2353110000     2.3794710000 
 H        1.4248680000    -0.0009230000     3.3295820000 
 H        0.8902780000    -2.8743220000     0.9819820000 
 H        2.2521330000    -2.6811220000     2.1136440000 
*
