! RI PBE def2-SVP def2-SVP/J NBO PAL2
% maxcore 2000
% output
    # printlevel mini
    print[ P_Basis ] 0
    print[ P_SCFInfo ] 1
    print[ P_SCFIterInfo ] 1
    print[ P_OrbEn ] 0
    print[ P_Cartesian ] 0
end
*xyz 0 1
 C       -0.7590380000     0.0000440000    -1.1666790000 
 C       -0.6240080000     1.0439120000    -0.0417380000 
 C       -1.2320170000     0.0001310000     0.9143470000 
 C       -0.6242230000    -1.0438110000    -0.0417000000 
 C        0.8394320000    -1.2226630000     0.2909160000 
 O        1.5384250000    -0.0001630000     0.4461930000 
 C        0.8396830000     1.2224750000     0.2908710000 
 H       -0.0054280000    -0.0000480000    -1.9588990000 
 H       -1.7580570000     0.0001390000    -1.6059690000 
 H       -1.1098640000     2.0156520000    -0.1521100000 
 H       -2.3227770000     0.0002420000     0.8787370000 
 H       -0.8948730000     0.0001150000     1.9544990000 
 H       -1.1102780000    -2.0154550000    -0.1520360000 
 H        1.3336380000    -1.7960000000    -0.5047030000 
 H        0.9410990000    -1.7923630000     1.2243030000 
 H        1.3340080000     1.7956820000    -0.5047690000 
 H        0.9414680000     1.7921890000     1.2242360000 
*
