! RI PBE def2-SVP def2-SVP/J NBO PAL2
% maxcore 2000
% output
    # printlevel mini
    print[ P_Basis ] 0
    print[ P_SCFInfo ] 1
    print[ P_SCFIterInfo ] 1
    print[ P_OrbEn ] 0
    print[ P_Cartesian ] 0
end
*xyz 0 1
 C        1.9014080000     0.0729570000    -0.6265370000 
 C        1.6696400000    -0.1493820000     0.8514470000 
 C        0.5270320000     0.0643540000    -0.0890970000 
 C       -0.4083180000     1.2528710000    -0.0145300000 
 O       -1.6834000000     0.6630280000     0.1890570000 
 C       -1.4832720000    -0.7253440000     0.2941360000 
 O       -0.3063120000    -1.0163360000    -0.4038610000 
 H        2.1994060000    -0.7841170000    -1.2174150000 
 H        2.3186700000     1.0191600000    -0.9501330000 
 H        1.9303410000     0.6461580000     1.5397280000 
 H        1.8158950000    -1.1547070000     1.2263940000 
 H       -0.4296860000     1.8199220000    -0.9508080000 
 H       -0.1585820000     1.9277590000     0.8102300000 
 H       -2.3166100000    -1.2527510000    -0.1729850000 
 H       -1.3837210000    -1.0141810000     1.3533750000 
*
