! RI PBE def2-SVP def2-SVP/J NBO PAL2
% maxcore 2000
% output
    # printlevel mini
    print[ P_Basis ] 0
    print[ P_SCFInfo ] 1
    print[ P_SCFIterInfo ] 1
    print[ P_OrbEn ] 0
    print[ P_Cartesian ] 0
end
*xyz 0 1
 C       -1.7864420000     0.6416170000     0.2761850000 
 O       -1.7191080000    -0.6779070000    -0.3386830000 
 C       -0.3273080000    -0.6896100000     0.0452990000 
 C        0.9725720000    -1.0341870000    -0.6300890000 
 O        1.8216290000    -0.0462100000    -0.0005300000 
 C        1.0667490000     1.0464050000     0.6003260000 
 C       -0.2844980000     0.8055920000    -0.0076840000 
 H       -2.0477060000     0.5605310000     1.3374160000 
 H       -2.4816480000     1.2990710000    -0.2460230000 
 H       -0.2719450000    -1.0463990000     1.0856360000 
 H        0.9406990000    -0.8926740000    -1.7160500000 
 H        1.3898970000    -2.0145970000    -0.3949960000 
 H        1.5564510000     1.9773550000     0.3106260000 
 H        1.0866720000     0.9474190000     1.6906050000 
 H       -0.2241030000     1.0785030000    -1.0663380000 
*
