! RI PBE def2-SVP def2-SVP/J NBO PAL2
% maxcore 2000
% output
    # printlevel mini
    print[ P_Basis ] 0
    print[ P_SCFInfo ] 1
    print[ P_SCFIterInfo ] 1
    print[ P_OrbEn ] 0
    print[ P_Cartesian ] 0
end
*xyz 0 1
 C        0.8112940000    -1.1171690000     0.9087950000 
 C        1.1051180000    -0.3733840000    -0.3481880000 
 C        0.8663720000     1.1063360000    -0.4704880000 
 O       -0.3032070000     1.5666180000     0.1959730000 
 C       -1.4161030000     0.8097780000     0.0221610000 
 C       -1.3979440000    -0.4977420000    -0.2247180000 
 C       -0.1217490000    -1.2341870000    -0.2801690000 
 H        0.4383340000    -0.5601510000     1.7599310000 
 H        1.4363650000    -1.9677070000     1.1524820000 
 H        1.9318160000    -0.7292200000    -0.9551730000 
 H        0.7832510000     1.3616070000    -1.5356860000 
 H        1.6873390000     1.6854720000    -0.0427430000 
 H       -2.3250250000     1.3873730000     0.1436590000 
 H       -2.3366910000    -1.0253140000    -0.3334430000 
 H       -0.1172520000    -2.1749100000    -0.8176740000 
*
