! RI PBE def2-SVP def2-SVP/J NBO PAL2
% maxcore 2000
% output
    # printlevel mini
    print[ P_Basis ] 0
    print[ P_SCFInfo ] 1
    print[ P_SCFIterInfo ] 1
    print[ P_OrbEn ] 0
    print[ P_Cartesian ] 0
end
*xyz 0 1
 C       -0.4628080000     1.4533770000    -0.4221390000 
 O       -1.3040320000     0.5673860000     0.2556410000 
 C       -1.3036180000    -0.7587510000    -0.2346210000 
 C       -0.2243480000    -1.6089570000     0.3544650000 
 C        1.0513180000    -1.2276680000     0.4499360000 
 C        1.6213290000     0.0191300000    -0.0349380000 
 C        0.9922740000     1.1268680000    -0.4429800000 
 H       -0.5921240000     2.4151860000     0.0878900000 
 H       -0.8077740000     1.6119450000    -1.4591300000 
 H       -1.2211110000    -0.7542810000    -1.3328020000 
 H       -2.2832750000    -1.1733750000     0.0137870000 
 H       -0.5121240000    -2.5849270000     0.7334690000 
 H        1.7578030000    -1.9220910000     0.8955580000 
 H        2.7064050000     0.0312900000    -0.0942690000 
 H        1.6074730000     1.9390790000    -0.8255660000 
*
