! RI PBE def2-SVP def2-SVP/J NBO PAL2
% maxcore 2000
% output
    # printlevel mini
    print[ P_Basis ] 0
    print[ P_SCFInfo ] 1
    print[ P_SCFIterInfo ] 1
    print[ P_OrbEn ] 0
    print[ P_Cartesian ] 0
end
*xyz 0 1
 C       -1.3015240000     0.6378410000     0.2252430000 
 O       -1.4037280000    -0.7455320000     0.0176260000 
 C       -0.3506490000    -1.4947370000     0.4218600000 
 C        0.9258260000    -1.1006930000     0.4822760000 
 C        1.4898430000     0.1617010000     0.0485800000 
 C        0.8532810000     1.1999260000    -0.5038590000 
 O       -0.4829810000     1.3153550000    -0.6903080000 
 H       -0.9339970000     0.8220520000     1.2395100000 
 H       -2.3032140000     1.0353810000     0.0797110000 
 H       -0.6556300000    -2.4930500000     0.7123440000 
 H        1.6218540000    -1.8391740000     0.8625850000 
 H        2.5643960000     0.2704180000     0.1377980000 
 H        1.3854130000     2.0752030000    -0.8570560000 
*
