! RI PBE def2-SVP def2-SVP/J NBO PAL2
% maxcore 2000
% output
    # printlevel mini
    print[ P_Basis ] 0
    print[ P_SCFInfo ] 1
    print[ P_SCFIterInfo ] 1
    print[ P_OrbEn ] 0
    print[ P_Cartesian ] 0
end
*xyz 0 1
 C        1.5043690000    -0.2082380000    -0.3583370000 
 C        2.9134640000     0.0031820000     0.0916060000 
 C        3.7151720000    -1.0497680000     0.7877080000 
 C        4.1329770000    -0.5481890000    -0.5742870000 
 C        5.1480060000     0.5783750000    -0.6104400000 
 C        4.2960940000     1.7994590000    -0.2574130000 
 O        3.2012640000     1.3170510000     0.5078230000 
 H        1.3534530000    -1.2410040000    -0.6790820000 
 H        1.2598850000     0.4534010000    -1.1932980000 
 H        0.8066290000    -0.0002200000     0.4568540000 
 H        3.3034780000    -2.0509000000     0.8489470000 
 H        4.3035940000    -0.7373510000     1.6428830000 
 H        4.0494570000    -1.2196120000    -1.4201580000 
 H        5.6067470000     0.6792510000    -1.5959540000 
 H        5.9508050000     0.4235380000     0.1157460000 
 H        3.9262560000     2.2870650000    -1.1704670000 
 H        4.8215510000     2.5458810000     0.3413700000 
*
