! RI PBE def2-SVP def2-SVP/J NBO PAL2
% maxcore 2000
% output
    # printlevel mini
    print[ P_Basis ] 0
    print[ P_SCFInfo ] 1
    print[ P_SCFIterInfo ] 1
    print[ P_OrbEn ] 0
    print[ P_Cartesian ] 0
end
*xyz 0 1
 C        1.3679480000     0.2133860000     0.4690030000 
 C        2.7090450000    -0.0114550000    -0.1430480000 
 C        3.4611680000     1.0484770000    -0.8730160000 
 C        4.0469770000     0.4520510000     0.3923930000 
 C        4.9125210000    -0.7279580000     0.1761610000 
 C        4.1841080000    -1.6690630000    -0.4225280000 
 O        2.8794230000    -1.3386620000    -0.6122990000 
 H        1.2914580000     1.2348950000     0.8445660000 
 H        1.1988570000    -0.4765590000     1.2986960000 
 H        0.5779810000     0.0630490000    -0.2713190000 
 H        3.0503710000     2.0485580000    -0.8049790000 
 H        3.9426050000     0.8007910000    -1.8114000000 
 H        4.1437880000     1.0673180000     1.2793820000 
 H        5.9538310000    -0.8113310000     0.4464820000 
 H        4.4631210000    -2.6505880000    -0.7780050000 
*
