! RI PBE def2-SVP def2-SVP/J NBO PAL2
% maxcore 2000
% output
    # printlevel mini
    print[ P_Basis ] 0
    print[ P_SCFInfo ] 1
    print[ P_SCFIterInfo ] 1
    print[ P_OrbEn ] 0
    print[ P_Cartesian ] 0
end
*xyz 0 1
 C        1.3334340000    -0.2100160000    -0.3027310000 
 C        2.7793800000    -0.0197490000     0.0122890000 
 C        3.6593320000    -1.0915600000     0.5931440000 
 C        3.9394160000    -0.5241890000    -0.7714270000 
 O        4.8856770000     0.5108480000    -0.8112650000 
 C        4.1524620000     1.6716020000    -0.5008880000 
 O        3.1452450000     1.2888260000     0.4018720000 
 H        1.1477110000    -1.2284650000    -0.6491390000 
 H        1.0105680000     0.4856090000    -1.0808870000 
 H        0.7228420000    -0.0381700000     0.5871670000 
 H        3.2608440000    -2.0986400000     0.6457470000 
 H        4.3346840000    -0.8016920000     1.3878640000 
 H        3.8571560000    -1.1205810000    -1.6730070000 
 H        3.7048090000     2.0922650000    -1.4160940000 
 H        4.8106090000     2.3987230000    -0.0232440000 
*
