! RI PBE def2-SVP def2-SVP/J NBO PAL2
% maxcore 2000
% output
    # printlevel mini
    print[ P_Basis ] 0
    print[ P_SCFInfo ] 1
    print[ P_SCFIterInfo ] 1
    print[ P_OrbEn ] 0
    print[ P_Cartesian ] 0
end
*xyz 0 1
 C        1.1400830000    -0.1767730000     0.0343640000 
 C        2.6102730000     0.0604570000    -0.0665030000 
 C        3.5196650000    -0.5728340000    -1.1337140000 
 C        4.5055070000    -0.3713670000     0.0179180000 
 C        4.6589750000     1.1493370000     0.1038290000 
 C        3.1527560000     1.4953550000     0.0376480000 
 O        3.4170700000    -0.6210920000     0.9444280000 
 H        0.6193700000     0.3298840000    -0.7820700000 
 H        0.7555400000     0.2167080000     0.9787650000 
 H        0.9125460000    -1.2429230000    -0.0153310000 
 H        3.6824370000    -0.0470740000    -2.0770310000 
 H        3.2818770000    -1.6246530000    -1.2897220000 
 H        5.3789370000    -1.0021040000     0.1762410000 
 H        5.2419690000     1.5633630000    -0.7215130000 
 H        5.1219060000     1.4496080000     1.0442930000 
 H        2.8803590000     2.1104770000    -0.8226580000 
 H        2.7893210000     1.9820310000     0.9440560000 
*
