! RI PBE def2-SVP def2-SVP/J NBO PAL2
% maxcore 2000
% output
    # printlevel mini
    print[ P_Basis ] 0
    print[ P_SCFInfo ] 1
    print[ P_SCFIterInfo ] 1
    print[ P_OrbEn ] 0
    print[ P_Cartesian ] 0
end
*xyz 0 1
 C        1.0693590000    -0.0339730000    -0.1700130000 
 C        2.5597120000     0.0138970000    -0.1023570000 
 C        3.5140410000    -0.4379830000    -1.2265070000 
 C        4.5460670000    -0.2979480000    -0.0823950000 
 C        3.4321560000    -0.8265000000     0.8522240000 
 C        4.4341330000     1.1937330000     0.1919930000 
 O        3.0092250000     1.3529900000     0.1656280000 
 H        0.7267380000    -1.0500750000    -0.3734170000 
 H        0.7035410000     0.6228810000    -0.9625260000 
 H        0.6350640000     0.2979950000     0.7757880000 
 H        3.6060450000     0.2178780000    -2.0948550000 
 H        3.3582060000    -1.4742570000    -1.5267740000 
 H        5.5422300000    -0.7347620000    -0.1247950000 
 H        3.4485620000    -0.5293200000     1.9029670000 
 H        3.2686860000    -1.8990000000     0.7457810000 
 H        4.8971870000     1.8142060000    -0.5820850000 
 H        4.8281470000     1.4866390000     1.1705420000 
*
