! RI PBE def2-SVP def2-SVP/J NBO PAL2
% maxcore 2000
% output
    # printlevel mini
    print[ P_Basis ] 0
    print[ P_SCFInfo ] 1
    print[ P_SCFIterInfo ] 1
    print[ P_OrbEn ] 0
    print[ P_Cartesian ] 0
end
*xyz 0 1
 C        1.3677900000    -0.1451950000    -0.3022240000 
 C        2.7935230000     0.1713150000     0.0416300000 
 C        3.6947970000    -0.9038770000     0.5968420000 
 C        3.9566630000    -0.3214690000    -0.7563150000 
 O        4.9464350000     0.6637140000    -0.8162360000 
 C        4.3313690000     1.9103760000    -0.5181090000 
 C        3.1693000000     1.5989070000     0.4249950000 
 H        1.2719920000    -1.1652280000    -0.6819270000 
 H        0.9841320000     0.5345710000    -1.0690360000 
 H        0.7212060000    -0.0591420000     0.5763110000 
 H        3.2945320000    -1.9106430000     0.6485880000 
 H        4.3930160000    -0.6409120000     1.3831770000 
 H        3.8466890000    -0.9180240000    -1.6564530000 
 H        3.9610540000     2.3716670000    -1.4444290000 
 H        5.0908490000     2.5650060000    -0.0865680000 
 H        2.3313970000     2.2824340000     0.2700000000 
 H        3.4700660000     1.6713200000     1.4736440000 
*
