! RI PBE def2-SVP def2-SVP/J NBO PAL2
% maxcore 2000
% output
    # printlevel mini
    print[ P_Basis ] 0
    print[ P_SCFInfo ] 1
    print[ P_SCFIterInfo ] 1
    print[ P_OrbEn ] 0
    print[ P_Cartesian ] 0
end
*xyz 0 1
 C        1.0063330000    -0.1005230000    -0.0434740000 
 C        2.4916550000     0.0812900000     0.0564970000 
 C        3.5065100000    -0.5196880000    -0.9564610000 
 C        4.4809670000    -0.1715620000     0.1761690000 
 C        3.3718500000    -0.5801750000     1.1541790000 
 O        4.4460300000     1.2567580000     0.2148740000 
 C        3.0366810000     1.5050520000     0.1320710000 
 H        0.7390960000    -1.1588380000    -0.0908610000 
 H        0.6101390000     0.3849310000    -0.9403780000 
 H        0.4977030000     0.3344070000     0.8220920000 
 H        3.6483940000    -0.0134060000    -1.9136550000 
 H        3.3669840000    -1.5927630000    -1.0921840000 
 H        5.5096440000    -0.5202130000     0.2318080000 
 H        3.2201250000    -1.6587290000     1.2096600000 
 H        3.3891980000    -0.1298320000     2.1489470000 
 H        2.8079960000     2.0980120000    -0.7603210000 
 H        2.6943750000     2.0469780000     1.0205550000 
*
