! RI PBE def2-SVP def2-SVP/J NBO PAL2
% maxcore 2000
% output
    # printlevel mini
    print[ P_Basis ] 0
    print[ P_SCFInfo ] 1
    print[ P_SCFIterInfo ] 1
    print[ P_OrbEn ] 0
    print[ P_Cartesian ] 0
end
*xyz 0 1
 C        1.4055970000     0.1350500000    -0.2067650000 
 C        2.8061100000    -0.2454450000     0.1405310000 
 C        3.1354900000    -1.6234110000     0.6577980000 
 O        4.5403540000    -1.7536760000     0.5777510000 
 C        5.0466110000    -0.8584320000    -0.3950980000 
 C        4.0214800000     0.2302190000    -0.5104100000 
 O        3.6261890000     0.7493690000     0.7523330000 
 H        0.9877850000    -0.5524830000    -0.9460260000 
 H        1.3761920000     1.1469640000    -0.6116560000 
 H        0.7678160000     0.1053420000     0.6807150000 
 H        2.6252070000    -2.3767110000     0.0385790000 
 H        2.8415360000    -1.7694270000     1.7011330000 
 H        5.1736660000    -1.3497120000    -1.3718280000 
 H        6.0218050000    -0.5047980000    -0.0502870000 
 H        4.0246620000     0.9246610000    -1.3454700000 
*
