! RI PBE def2-SVP def2-SVP/J NBO PAL2
% maxcore 2000
% output
    # printlevel mini
    print[ P_Basis ] 0
    print[ P_SCFInfo ] 1
    print[ P_SCFIterInfo ] 1
    print[ P_OrbEn ] 0
    print[ P_Cartesian ] 0
end
*xyz 0 1
 C        0.9770270000     0.0645540000    -0.0021370000 
 C        2.4825820000     0.0756620000    -0.1318270000 
 C        3.1242350000     1.1177470000    -1.0967670000 
 C        2.8079320000     0.1295700000    -2.2480530000 
 C        3.1537220000    -0.8785450000    -1.1434350000 
 O        4.5461860000    -0.6463710000    -0.9198940000 
 C        4.5934800000     0.7919710000    -0.8772400000 
 H        0.6376870000     0.9190670000     0.5895770000 
 H        0.6423180000    -0.8408490000     0.5115420000 
 H        0.4616630000     0.1068460000    -0.9630740000 
 H        2.9449450000     0.0324990000     0.8596880000 
 H        2.8317540000     2.1672230000    -1.1151620000 
 H        3.4567960000     0.1372410000    -3.1255560000 
 H        1.7614960000     0.1288150000    -2.5432750000 
 H        2.9599940000    -1.9483990000    -1.2000790000 
 H        5.2496330000     1.1685260000    -1.6682870000 
 H        4.9717520000     1.1252520000     0.0943780000 
*
