! RI PBE def2-SVP def2-SVP/J NBO PAL2
% maxcore 2000
% output
    # printlevel mini
    print[ P_Basis ] 0
    print[ P_SCFInfo ] 1
    print[ P_SCFIterInfo ] 1
    print[ P_OrbEn ] 0
    print[ P_Cartesian ] 0
end
*xyz 0 1
 C        0.9174010000     0.0012890000    -0.1416220000 
 C        2.3905350000     0.1969340000     0.0970780000 
 C        3.4935760000    -0.6828150000    -0.5605430000 
 O        4.4146960000     0.4171900000    -0.3215970000 
 C        3.2603990000     1.2242820000    -0.6845980000 
 C        3.0422430000     0.8025550000    -2.1382390000 
 C        3.2033200000    -0.5148620000    -2.0525420000 
 H        0.5624790000    -0.8976980000     0.3695500000 
 H        0.6869210000    -0.0959860000    -1.2038070000 
 H        0.3492140000     0.8465320000     0.2560880000 
 H        2.6121560000     0.2934030000     1.1635340000 
 H        3.8171310000    -1.6456180000    -0.1686660000 
 H        3.3373370000     2.2785000000    -0.4239250000 
 H        2.8162400000     1.4339620000    -2.9846850000 
 H        3.1486530000    -1.2847770000    -2.8078340000 
*
