! RI PBE def2-SVP def2-SVP/J NBO PAL2
% maxcore 2000
% output
    # printlevel mini
    print[ P_Basis ] 0
    print[ P_SCFInfo ] 1
    print[ P_SCFIterInfo ] 1
    print[ P_OrbEn ] 0
    print[ P_Cartesian ] 0
end
*xyz 0 1
 C        0.8846430000    -0.0202840000    -0.3589980000 
 C        2.2122630000    -0.0050930000     0.3369130000 
 C        3.4026540000     0.7293210000    -0.1820560000 
 O        3.4145930000     1.1185740000    -1.5377560000 
 C        3.4386860000    -0.0217440000    -2.2793770000 
 C        3.4814370000    -1.1444680000    -1.5644780000 
 C        3.4310610000    -0.7858370000    -0.1304740000 
 H        0.3330040000     0.9012350000    -0.1564570000 
 H        0.2772120000    -0.8611840000    -0.0142950000 
 H        0.9962610000    -0.1102980000    -1.4400110000 
 H        2.1504300000     0.0471060000     1.4201390000 
 H        3.9833250000     1.3943720000     0.4442700000 
 H        3.4154950000     0.1304020000    -3.3490820000 
 H        3.5404140000    -2.1441400000    -1.9661160000 
 H        4.0089420000    -1.3435510000     0.5968790000 
*
