! RI PBE def2-SVP def2-SVP/J NBO PAL2
% maxcore 2000
% output
    # printlevel mini
    print[ P_Basis ] 0
    print[ P_SCFInfo ] 1
    print[ P_SCFIterInfo ] 1
    print[ P_OrbEn ] 0
    print[ P_Cartesian ] 0
end
*xyz 0 1
 C        0.8315660000     0.1376360000    -0.2868340000 
 C        2.3151360000     0.1008510000    -0.0516180000 
 C        3.1507840000    -0.9651620000    -0.6903540000 
 C        3.2818130000     0.4558370000    -1.1509010000 
 C        4.5377110000     1.2365950000    -0.8680900000 
 C        4.3260970000     2.7395070000    -0.9231170000 
 O        3.4176390000     3.2061900000     0.0511700000 
 H        0.3063880000    -0.5480860000     0.3837150000 
 H        0.5936090000    -0.1556650000    -1.3127760000 
 H        0.4169560000     1.1377510000    -0.1252590000 
 H        2.6283390000     0.3931010000     0.9471570000 
 H        2.6512240000    -1.6697420000    -1.3451300000 
 H        3.9720480000    -1.3851410000    -0.1211960000 
 H        2.8231700000     0.6743980000    -2.1135160000 
 H        5.3121780000     0.9668730000    -1.5961750000 
 H        4.9225680000     0.9646360000     0.1211370000 
 H        3.9942740000     3.0276760000    -1.9324130000 
 H        5.2677210000     3.2598260000    -0.7322320000 
 H        2.6124880000     2.6881200000    -0.0349590000 
*
