! RI PBE def2-SVP def2-SVP/J NBO PAL2
% maxcore 2000
% output
    # printlevel mini
    print[ P_Basis ] 0
    print[ P_SCFInfo ] 1
    print[ P_SCFIterInfo ] 1
    print[ P_OrbEn ] 0
    print[ P_Cartesian ] 0
end
*xyz 0 1
 C        0.8661980000     0.1853520000    -0.1895390000 
 C        2.3507590000     0.1256770000     0.0261230000 
 C        3.2180950000    -0.7107210000    -0.8390830000 
 C        3.2658210000     0.7928760000    -0.9810060000 
 C        4.4384340000     1.5892790000    -0.5489490000 
 C        5.3548150000     1.0302010000     0.5120370000 
 O        4.6687130000     2.6619410000    -1.0595860000 
 H        0.3623710000    -0.6258000000     0.3430430000 
 H        0.6218970000     0.0895630000    -1.2502730000 
 H        0.4509950000     1.1314700000     0.1659960000 
 H        2.6630120000     0.2141900000     1.0617770000 
 H        2.7551170000    -1.2553580000    -1.6533910000 
 H        4.0748480000    -1.2039070000    -0.3973130000 
 H        2.7752090000     1.2224420000    -1.8469890000 
 H        4.8292050000     0.4654920000     1.2838960000 
 H        5.9146960000     1.8476140000     0.9629560000 
 H        6.0661860000     0.3483880000     0.0356910000 
*
