! RI PBE def2-SVP def2-SVP/J NBO PAL2
% maxcore 2000
% output
    # printlevel mini
    print[ P_Basis ] 0
    print[ P_SCFInfo ] 1
    print[ P_SCFIterInfo ] 1
    print[ P_OrbEn ] 0
    print[ P_Cartesian ] 0
end
*xyz 0 1
 C        0.7608340000     0.1665080000    -0.1471780000 
 C        2.2464900000    -0.0373690000    -0.0698240000 
 C        2.9692920000    -0.8332290000    -1.1249140000 
 C        3.1612830000     0.6369470000    -1.0428210000 
 O        4.4202230000     1.0683090000    -0.6205230000 
 C        4.4275830000     2.2374570000     0.0625540000 
 C        5.5478650000     2.8672750000     0.3859150000 
 H        0.2219150000    -0.6983750000     0.2488770000 
 H        0.4391620000     0.3066150000    -1.1825710000 
 H        0.4471080000     1.0463850000     0.4210510000 
 H        2.6579950000    -0.1376540000     0.9298240000 
 H        2.3991350000    -1.2279730000    -1.9574930000 
 H        3.8051870000    -1.4442070000    -0.8085990000 
 H        2.7171470000     1.2623440000    -1.8147720000 
 H        3.4460950000     2.6163880000     0.3398840000 
 H        6.5179090000     2.4785410000     0.1028520000 
 H        5.4982690000     3.7873460000     0.9503600000 
*
