! RI PBE def2-SVP def2-SVP/J NBO PAL2
% maxcore 2000
% output
    # printlevel mini
    print[ P_Basis ] 0
    print[ P_SCFInfo ] 1
    print[ P_SCFIterInfo ] 1
    print[ P_OrbEn ] 0
    print[ P_Cartesian ] 0
end
*xyz 0 1
 C        0.7739010000    -0.2475870000    -0.3694460000 
 C        2.2546810000    -0.2125460000    -0.1227760000 
 C        3.2151180000    -0.9126550000    -1.0503620000 
 C        3.1455820000     0.5758060000    -1.0083540000 
 O        4.1962260000     1.2679500000    -0.3654670000 
 C        5.0876110000     1.8576850000    -1.1645390000 
 O        5.0693920000     1.8664490000    -2.3591920000 
 H        0.3317080000    -1.1647910000     0.0277490000 
 H        0.5538870000    -0.2121250000    -1.4394690000 
 H        0.2724340000     0.6010100000     0.1028930000 
 H        2.5563670000    -0.2156480000     0.9200610000 
 H        2.8240910000    -1.4094470000    -1.9304040000 
 H        4.0884290000    -1.3769580000    -0.6100300000 
 H        2.7359380000     1.1094170000    -1.8568620000 
 H        5.8484350000     2.3525380000    -0.5431940000 
*
