! RI PBE def2-SVP def2-SVP/J NBO PAL2
% maxcore 2000
% output
    # printlevel mini
    print[ P_Basis ] 0
    print[ P_SCFInfo ] 1
    print[ P_SCFIterInfo ] 1
    print[ P_OrbEn ] 0
    print[ P_Cartesian ] 0
end
*xyz 0 1
 C        0.9671330000    -0.0381590000    -0.0916920000 
 C        2.4814980000    -0.0657450000    -0.0770120000 
 C        3.0983030000    -1.2019640000     0.7857590000 
 C        3.8712790000    -0.3172900000     1.7654010000 
 C        4.5776220000     0.6962050000     0.8580150000 
 C        3.1100140000     1.1031240000     0.6994950000 
 O        2.8936090000     0.7111110000     2.0823740000 
 H        0.5593610000    -0.9540280000    -0.5271890000 
 H        0.5905860000     0.8050650000    -0.6776580000 
 H        0.5804780000     0.0528930000     0.9261120000 
 H        2.8655650000    -0.0896950000    -1.1015280000 
 H        3.7439750000    -1.8798990000     0.2237990000 
 H        2.3350510000    -1.7900960000     1.2989300000 
 H        4.3390640000    -0.7716230000     2.6378870000 
 H        5.1279440000     0.3374120000    -0.0141810000 
 H        5.1473070000     1.4288410000     1.4276120000 
 H        2.7862120000     2.1176480000     0.4670670000 
*
