! RI PBE def2-SVP def2-SVP/J NBO PAL2
% maxcore 2000
% output
    # printlevel mini
    print[ P_Basis ] 0
    print[ P_SCFInfo ] 1
    print[ P_SCFIterInfo ] 1
    print[ P_OrbEn ] 0
    print[ P_Cartesian ] 0
end
*xyz 0 1
 C        1.0304950000     0.0854100000     0.0509580000 
 C        2.3519290000     0.0489790000     0.0435640000 
 C        3.3201110000    -1.1194170000     0.0838300000 
 C        4.6006180000    -0.2740970000     0.0160760000 
 C        4.3159100000     0.7381230000    -1.0988430000 
 C        3.3308200000     1.1919550000    -0.0072790000 
 O        4.3165580000     0.7725920000     0.9840970000 
 H        0.4337790000    -0.8193470000     0.0888490000 
 H        0.4954880000     1.0285440000     0.0226720000 
 H        3.2055500000    -1.8109800000    -0.7544350000 
 H        3.2624730000    -1.6799760000     1.0187760000 
 H        5.5633710000    -0.7629620000     0.1534620000 
 H        3.9234060000     0.3871110000    -2.0548260000 
 H        5.1318240000     1.4487920000    -1.2236260000 
 H        2.9709760000     2.2126730000     0.1043950000 
*
