! RI PBE def2-SVP def2-SVP/J NBO PAL2
% maxcore 2000
% output
    # printlevel mini
    print[ P_Basis ] 0
    print[ P_SCFInfo ] 1
    print[ P_SCFIterInfo ] 1
    print[ P_OrbEn ] 0
    print[ P_Cartesian ] 0
end
*xyz 0 1
 C        1.0655600000     0.0573380000     0.0763960000 
 C        2.5261960000    -0.1717320000     0.1113490000 
 C        3.2921510000    -1.2222390000    -0.1806660000 
 C        4.6873570000    -0.6760700000     0.1182950000 
 C        4.6421990000     0.6994670000    -0.5860640000 
 C        3.5963630000     0.8442070000     0.5428190000 
 O        4.4673350000     0.0301560000     1.3763650000 
 H        0.5308490000    -0.8271090000    -0.2731370000 
 H        0.8113640000     0.8927300000    -0.5848460000 
 H        0.6856460000     0.3171410000     1.0701400000 
 H        3.0304890000    -2.2107840000    -0.5294710000 
 H        5.5517180000    -1.3371410000     0.1111180000 
 H        4.3072690000     0.7445270000    -1.6225510000 
 H        5.5373760000     1.2975260000    -0.4068470000 
 H        3.2973290000     1.7947840000     0.9831110000 
*
