! RI PBE def2-SVP def2-SVP/J NBO PAL2
% maxcore 2000
% output
    # printlevel mini
    print[ P_Basis ] 0
    print[ P_SCFInfo ] 1
    print[ P_SCFIterInfo ] 1
    print[ P_OrbEn ] 0
    print[ P_Cartesian ] 0
end
*xyz 0 1
 C        1.3805500000     0.1560740000     0.6556080000 
 C        2.3408820000    -0.1040930000    -0.2221140000 
 C        3.0712810000    -1.4064360000    -0.4502180000 
 C        4.2773070000    -0.9959810000    -1.2569350000 
 C        5.1263550000     0.1130020000    -0.6884860000 
 C        4.0212440000     0.4214740000    -1.6418470000 
 O        2.8078800000     0.8499260000    -1.0801370000 
 H        1.0126950000    -0.6281410000     1.3021230000 
 H        0.9391720000     1.1410930000     0.7259940000 
 H        2.4463960000    -2.0903440000    -1.0332910000 
 H        3.3122040000    -1.8988700000     0.4937500000 
 H        4.7194380000    -1.6999440000    -1.9493820000 
 H        6.1429380000     0.1989090000    -1.0516810000 
 H        4.9814390000     0.3925910000     0.3494610000 
 H        4.1988080000     0.8410420000    -2.6224340000 
*
