! RI PBE def2-SVP def2-SVP/J NBO PAL2
% maxcore 2000
% output
    # printlevel mini
    print[ P_Basis ] 0
    print[ P_SCFInfo ] 1
    print[ P_SCFIterInfo ] 1
    print[ P_OrbEn ] 0
    print[ P_Cartesian ] 0
end
*xyz 0 1
 C        1.0830000000    -0.0303890000    -0.3228350000 
 C        2.5092890000     0.1556480000     0.0184890000 
 C        3.2543240000     1.2567780000     0.1531240000 
 C        4.6510680000     0.8616610000     0.4396950000 
 C        5.3046570000     0.0136460000    -0.6303580000 
 C        4.5469170000    -0.6427820000     0.4714710000 
 O        3.2060970000    -1.0007220000     0.2419850000 
 H        0.5853320000     0.9344880000    -0.4129680000 
 H        0.5797580000    -0.6198570000     0.4485340000 
 H        0.9753320000    -0.5701770000    -1.2676710000 
 H        2.8940880000     2.2693110000     0.0536360000 
 H        5.2667270000     1.4292530000     1.1271500000 
 H        6.3812920000    -0.0987360000    -0.5906620000 
 H        4.8714050000     0.0341050000    -1.6230320000 
 H        5.0383120000    -1.2904160000     1.1851120000 
*
