! RI PBE def2-SVP def2-SVP/J NBO PAL2
% maxcore 2000
% output
    # printlevel mini
    print[ P_Basis ] 0
    print[ P_SCFInfo ] 1
    print[ P_SCFIterInfo ] 1
    print[ P_OrbEn ] 0
    print[ P_Cartesian ] 0
end
*xyz 0 1
 C        1.2289040000     0.1403930000     0.8302970000 
 C        2.3758490000    -0.1049390000    -0.1306300000 
 C        2.3965780000    -1.5195900000    -0.7361000000 
 C        3.1061250000    -1.3527200000    -2.0514750000 
 O        4.2962910000    -0.5742500000    -1.9664160000 
 C        3.1028870000     0.0607460000    -2.4162080000 
 C        2.3911730000     0.8401930000    -1.3450220000 
 H        1.2636500000    -0.5524530000     1.6752150000 
 H        0.2636250000     0.0094870000     0.3315610000 
 H        1.2597370000     1.1556990000     1.2344400000 
 H        3.3186100000     0.0351450000     0.4038770000 
 H        1.3776230000    -1.8761230000    -0.9310850000 
 H        2.8785340000    -2.2472380000    -0.0777090000 
 H        3.1259490000    -2.1506760000    -2.7881340000 
 H        3.1201010000     0.4027070000    -3.4470130000 
 H        1.3709130000     1.0534850000    -1.6870460000 
 H        2.8692700000     1.7976230000    -1.1214520000 
*
