! RI PBE def2-SVP def2-SVP/J NBO PAL2
% maxcore 2000
% output
    # printlevel mini
    print[ P_Basis ] 0
    print[ P_SCFInfo ] 1
    print[ P_SCFIterInfo ] 1
    print[ P_OrbEn ] 0
    print[ P_Cartesian ] 0
end
*xyz 0 1
 C        1.2198390000     0.0173770000     0.9794360000 
 C        2.2304290000    -0.0052530000     0.1239540000 
 C        2.9079820000    -1.2495950000    -0.4045230000 
 C        4.2696690000    -0.7680730000    -0.8288140000 
 O        4.9441410000    -0.0246880000     0.1787180000 
 C        4.2806500000     0.6928930000    -0.8544870000 
 C        2.9264660000     1.2094320000    -0.4477340000 
 H        0.7811440000    -0.8974690000     1.3625560000 
 H        0.7950430000     0.9516060000     1.3300640000 
 H        2.3776300000    -1.6422000000    -1.2813170000 
 H        2.9511760000    -2.0477010000     0.3401320000 
 H        4.9053850000    -1.3736960000    -1.4675050000 
 H        4.9252280000     1.2660810000    -1.5138930000 
 H        2.4018420000     1.5789180000    -1.3379200000 
 H        2.9818450000     2.0324680000     0.2684330000 
*
