! RI PBE def2-SVP def2-SVP/J NBO PAL2
% maxcore 2000
% output
    # printlevel mini
    print[ P_Basis ] 0
    print[ P_SCFInfo ] 1
    print[ P_SCFIterInfo ] 1
    print[ P_OrbEn ] 0
    print[ P_Cartesian ] 0
end
*xyz 0 1
 C        0.9581000000     0.0183380000    -0.0341990000 
 C        2.4392390000     0.0506980000     0.0722110000 
 C        3.2262480000     1.1283160000     0.1226410000 
 C        4.6554330000     0.7338160000     0.1066390000 
 O        5.0334660000     0.0187140000    -1.0808880000 
 C        4.6859590000    -0.7299040000     0.0717000000 
 C        3.2569250000    -1.2201030000     0.0899850000 
 H        0.5306350000     1.0210100000     0.0088270000 
 H        0.5185960000    -0.5809690000     0.7701090000 
 H        0.6456720000    -0.4446530000    -0.9761770000 
 H        2.8825610000     2.1555010000     0.1213360000 
 H        5.4388630000     1.3444640000     0.5421420000 
 H        5.4869560000    -1.3218140000     0.5036140000 
 H        3.0513450000    -1.8127320000     0.9892500000 
 H        3.0359030000    -1.8595030000    -0.7716690000 
*
