! RI PBE def2-SVP def2-SVP/J NBO PAL2
% maxcore 2000
% output
    # printlevel mini
    print[ P_Basis ] 0
    print[ P_SCFInfo ] 1
    print[ P_SCFIterInfo ] 1
    print[ P_OrbEn ] 0
    print[ P_Cartesian ] 0
end
*xyz 0 1
 C        1.0379870000    -0.0531020000    -0.4508080000 
 C        2.4864550000    -0.0090120000    -0.0364600000 
 C        2.6893880000     0.0972840000     1.4527920000 
 C        3.4593580000    -0.8199140000    -0.8420680000 
 C        3.4371370000     0.6785170000    -0.9782860000 
 C        4.5997140000     1.5027110000    -0.5118510000 
 O        4.2321300000     2.7925330000    -0.0582350000 
 H        0.5289580000    -0.9135770000    -0.0054790000 
 H        0.9351890000    -0.1298610000    -1.5361450000 
 H        0.5116610000     0.8497280000    -0.1260170000 
 H        2.2050050000    -0.7421990000     1.9607510000 
 H        2.2558840000     1.0229310000     1.8409490000 
 H        3.7438850000     0.0840240000     1.7303850000 
 H        3.0857130000    -1.4197450000    -1.6637420000 
 H        4.3046210000    -1.2554160000    -0.3195460000 
 H        2.9790510000     1.0523790000    -1.8927000000 
 H        5.3436550000     1.5736280000    -1.3187010000 
 H        5.0976810000     1.0245060000     0.3337330000 
 H        3.7707300000     3.2407970000    -0.7714830000 
*
