! RI PBE def2-SVP def2-SVP/J NBO PAL2
% maxcore 2000
% output
    # printlevel mini
    print[ P_Basis ] 0
    print[ P_SCFInfo ] 1
    print[ P_SCFIterInfo ] 1
    print[ P_OrbEn ] 0
    print[ P_Cartesian ] 0
end
*xyz 0 1
 C        0.5854820000     0.2750750000     0.1305210000 
 C        2.0809610000     0.1657480000    -0.0211200000 
 C        2.8208560000     0.2378210000     1.2904800000 
 C        2.6079740000    -0.7537710000    -1.0987070000 
 C        2.7084360000     0.7230810000    -1.2817680000 
 C        4.0419580000     1.4153990000    -1.2772620000 
 O        1.8431410000     1.2262320000    -2.2647050000 
 H        0.2037770000    -0.5474400000     0.7428520000 
 H        0.0808360000     0.2466110000    -0.8346890000 
 H        0.3096560000     1.2095210000     0.6312480000 
 H        2.4439760000    -0.5272230000     1.9765020000 
 H        2.6788750000     1.2096010000     1.7742840000 
 H        3.8930350000     0.0728160000     1.1790420000 
 H        1.8807920000    -1.2666900000    -1.7169210000 
 H        3.5202660000    -1.3070170000    -0.9055950000 
 H        4.4775410000     1.3712170000    -2.2784300000 
 H        4.7443220000     0.9587600000    -0.5805670000 
 H        3.9364450000     2.4702420000    -1.0006660000 
 H        1.6249500000     2.1344150000    -2.0340000000 
*
