! RI PBE def2-SVP def2-SVP/J NBO PAL2
% maxcore 2000
% output
    # printlevel mini
    print[ P_Basis ] 0
    print[ P_SCFInfo ] 1
    print[ P_SCFIterInfo ] 1
    print[ P_OrbEn ] 0
    print[ P_Cartesian ] 0
end
*xyz 0 1
 C        0.8334010000    -0.0707290000     0.0350230000 
 C        2.3470020000    -0.0019990000    -0.0122980000 
 C        3.0745340000     1.0767140000     0.8115420000 
 C        4.0987220000     0.0170050000     1.2589030000 
 C        3.1320720000    -1.0849570000     0.7900130000 
 C        2.8089030000    -0.0564690000    -1.4420000000 
 O        3.5671090000     0.7081680000    -1.9719250000 
 H        0.4902130000    -0.1466340000     1.0691810000 
 H        0.4565490000    -0.9435830000    -0.5073520000 
 H        0.3813910000     0.8216290000    -0.4070840000 
 H        2.4521950000     1.4286670000     1.6368160000 
 H        3.4521710000     1.9302320000     0.2484900000 
 H        4.3825730000     0.0071470000     2.3114030000 
 H        5.0045870000     0.0511670000     0.6522480000 
 H        2.5149950000    -1.4790410000     1.6007570000 
 H        3.5467920000    -1.9269280000     0.2295520000 
 H        2.3914020000    -0.9204090000    -2.0102680000 
*
