! RI PBE def2-SVP def2-SVP/J NBO PAL2
% maxcore 2000
% output
    # printlevel mini
    print[ P_Basis ] 0
    print[ P_SCFInfo ] 1
    print[ P_SCFIterInfo ] 1
    print[ P_OrbEn ] 0
    print[ P_Cartesian ] 0
end
*xyz 0 1
 C        0.5550970000     0.1639630000    -0.5817990000 
 C        1.9478640000     0.4503910000    -0.0970850000 
 C        3.1650320000    -0.3292750000    -0.5570180000 
 C        3.0899350000    -1.4630790000    -1.5408190000 
 C        2.9896890000     1.1176340000    -0.9344510000 
 C        2.7276930000     1.5486320000    -2.3485460000 
 O        3.7598630000     2.0455290000    -0.2138230000 
 H        0.0959070000    -0.6337830000     0.0083700000 
 H        0.5261380000    -0.1482840000    -1.6266450000 
 H       -0.0786820000     1.0499870000    -0.4882190000 
 H        1.9986380000     0.7568630000     0.9431350000 
 H        3.9044730000    -0.4723160000     0.2258650000 
 H        2.3260310000    -1.3088300000    -2.3040030000 
 H        2.8549260000    -2.4029510000    -1.0333400000 
 H        4.0438740000    -1.5995810000    -2.0582480000 
 H        2.0946010000     0.8470850000    -2.8911400000 
 H        3.6678490000     1.6379520000    -2.9032460000 
 H        2.2396030000     2.5263200000    -2.3556200000 
 H        4.6485880000     2.0431430000    -0.5822660000 
*
