! RI PBE def2-SVP def2-SVP/J NBO PAL2
% maxcore 2000
% output
    # printlevel mini
    print[ P_Basis ] 0
    print[ P_SCFInfo ] 1
    print[ P_SCFIterInfo ] 1
    print[ P_OrbEn ] 0
    print[ P_Cartesian ] 0
end
*xyz 0 1
 C        0.9307280000     0.0309570000     0.0328300000 
 C        2.4297000000    -0.0597100000    -0.0034890000 
 C        3.1819260000    -0.8491290000    -1.0119130000 
 C        2.5256910000    -1.6429900000    -2.1053590000 
 C        3.2008280000     0.6669580000    -1.0909440000 
 C        4.4323340000     1.3718690000    -0.7242720000 
 O        4.8282460000     2.3906750000    -1.2269090000 
 H        0.5030000000    -0.8129260000     0.5809420000 
 H        0.4960680000     0.0334060000    -0.9676200000 
 H        0.6125680000     0.9493120000     0.5317230000 
 H        2.8992580000    -0.0158670000     0.9760410000 
 H        4.1078210000    -1.2842920000    -0.6441590000 
 H        1.6270690000    -1.1540380000    -2.4838280000 
 H        2.2403810000    -2.6360520000    -1.7476970000 
 H        3.2081130000    -1.7746060000    -2.9482610000 
 H        2.6223620000     1.1286860000    -1.8839280000 
 H        5.0121980000     0.8805260000     0.0930530000 
*
