! RI PBE def2-SVP def2-SVP/J NBO PAL2
% maxcore 2000
% output
    # printlevel mini
    print[ P_Basis ] 0
    print[ P_SCFInfo ] 1
    print[ P_SCFIterInfo ] 1
    print[ P_OrbEn ] 0
    print[ P_Cartesian ] 0
end
*xyz 0 1
 C        0.8516390000    -0.0338000000    -0.0465610000 
 C        2.3542720000    -0.0185290000     0.0928320000 
 C        3.0507010000     1.0237270000     0.9891200000 
 C        4.1074900000    -0.0394170000     1.3398390000 
 C        3.1028250000    -1.1235210000     0.8893120000 
 C        2.3165470000    -1.7052670000     2.0404560000 
 O        3.5959760000    -2.2214050000     0.1595880000 
 H        0.4997680000     0.8499700000    -0.5860070000 
 H        0.3601250000    -0.0411540000     0.9295200000 
 H        0.5137280000    -0.9147720000    -0.5991050000 
 H        2.8153020000     0.0220390000    -0.9028230000 
 H        2.4332680000     1.2842370000     1.8520540000 
 H        3.3941050000     1.9454970000     0.5185620000 
 H        4.4823830000    -0.0900990000     2.3638230000 
 H        4.9588870000     0.0056290000     0.6547600000 
 H        1.9061700000    -0.9214140000     2.6795770000 
 H        2.9719600000    -2.3359120000     2.6448960000 
 H        1.4937950000    -2.3208170000     1.6712080000 
 H        4.1073600000    -1.8842630000    -0.5809330000 
*
