! RI PBE def2-SVP def2-SVP/J NBO PAL2
% maxcore 2000
% output
    # printlevel mini
    print[ P_Basis ] 0
    print[ P_SCFInfo ] 1
    print[ P_SCFIterInfo ] 1
    print[ P_OrbEn ] 0
    print[ P_Cartesian ] 0
end
*xyz 0 1
 C        0.9475310000     0.0472280000     0.0073450000 
 C        2.4550720000     0.0844330000     0.0332070000 
 C        3.1858090000     1.1759680000     0.8377660000 
 C        4.2364740000     0.1233350000     1.2262210000 
 C        3.2123780000    -0.9807270000     0.8774090000 
 C        3.7075550000    -2.1814740000     0.1485640000 
 O        3.4415120000    -3.3219760000     0.4154660000 
 H        0.5449700000     0.9114860000    -0.5283080000 
 H        0.5399090000     0.0623000000     1.0218510000 
 H        0.5783100000    -0.8544400000    -0.4884180000 
 H        2.8521500000     0.0659450000    -0.9888390000 
 H        2.5921480000     1.4846200000     1.7022790000 
 H        3.5201160000     2.0684450000     0.3064340000 
 H        4.6306390000     0.1286500000     2.2423750000 
 H        5.0751450000     0.1138790000     0.5245220000 
 H        2.6251360000    -1.2923190000     1.7441870000 
 H        4.3691460000    -1.9460320000    -0.7190710000 
*
