! RI PBE def2-SVP def2-SVP/J NBO PAL2
% maxcore 2000
% output
    # printlevel mini
    print[ P_Basis ] 0
    print[ P_SCFInfo ] 1
    print[ P_SCFIterInfo ] 1
    print[ P_OrbEn ] 0
    print[ P_Cartesian ] 0
end
*xyz 0 1
 C        1.2066030000     0.3615910000     0.6725720000 
 C        2.4310650000    -0.1097580000    -0.0907310000 
 C        2.4140370000    -1.6105920000    -0.4321570000 
 C        3.2521020000    -1.7680300000    -1.7074770000 
 C        3.0967990000    -0.4404430000    -2.3998150000 
 O        1.7500430000     0.0232850000    -2.4469320000 
 C        2.6137160000     0.5438080000    -1.4394720000 
 H        1.0921120000    -0.1862500000     1.6113660000 
 H        0.3043190000     0.2020320000     0.0767160000 
 H        1.2689620000     1.4258510000     0.9141870000 
 H        3.3324540000     0.1201810000     0.4935610000 
 H        1.3845440000    -1.9150750000    -0.6307780000 
 H        2.7815810000    -2.2245580000     0.3920440000 
 H        2.9295640000    -2.6099620000    -2.3251690000 
 H        4.3123120000    -1.9174510000    -1.4756990000 
 H        3.7078050000    -0.1761940000    -3.2581050000 
 H        2.8326840000     1.6054730000    -1.5202200000 
*
