! RI PBE def2-SVP def2-SVP/J NBO PAL2
% maxcore 2000
% output
    # printlevel mini
    print[ P_Basis ] 0
    print[ P_SCFInfo ] 1
    print[ P_SCFIterInfo ] 1
    print[ P_OrbEn ] 0
    print[ P_Cartesian ] 0
end
*xyz 0 1
 C        1.2246780000     0.1740420000     0.6355530000 
 C        2.2514870000    -0.0803440000    -0.1645550000 
 C        2.7517730000    -1.4269110000    -0.6261900000 
 C        4.2668240000    -1.2416210000    -0.8250680000 
 C        4.4209960000     0.2334750000    -1.0944760000 
 O        3.5200720000     0.7245850000    -2.0722170000 
 C        3.1945400000     0.9289670000    -0.6916640000 
 H        0.6166020000    -0.6216090000     1.0513730000 
 H        0.9573250000     1.1909310000     0.9012770000 
 H        2.2806120000    -1.6746400000    -1.5807040000 
 H        2.5076090000    -2.2238430000     0.0771340000 
 H        4.6684860000    -1.8570770000    -1.6331860000 
 H        4.8159600000    -1.4904600000     0.0884150000 
 H        5.3948110000     0.7139180000    -1.0702560000 
 H        3.1686460000     1.9619680000    -0.3610240000 
*
