! RI PBE def2-SVP def2-SVP/J NBO PAL2
% maxcore 2000
% output
    # printlevel mini
    print[ P_Basis ] 0
    print[ P_SCFInfo ] 1
    print[ P_SCFIterInfo ] 1
    print[ P_OrbEn ] 0
    print[ P_Cartesian ] 0
end
*xyz 0 1
 C        1.0246600000    -0.0871170000     0.0228250000 
 C        2.3419590000     0.0997750000     0.0610680000 
 C        3.0632210000     1.3714820000     0.1376810000 
 C        4.3847040000     1.1820050000     0.0386400000 
 C        4.6818340000    -0.2744780000    -0.0475770000 
 O        4.2616900000    -0.9985530000     1.1122610000 
 C        3.3878210000    -0.9622780000    -0.0143950000 
 H        0.3344770000     0.7472680000     0.0775810000 
 H        0.5975290000    -1.0798330000    -0.0604580000 
 H        2.5686440000     2.3238730000     0.2842760000 
 H        5.1430660000     1.9532640000     0.0632000000 
 H        5.5608130000    -0.6644350000    -0.5489020000 
 H        3.1924930000    -1.9173810000    -0.4900910000 
*
