! RI PBE def2-SVP def2-SVP/J NBO PAL2
% maxcore 2000
% output
    # printlevel mini
    print[ P_Basis ] 0
    print[ P_SCFInfo ] 1
    print[ P_SCFIterInfo ] 1
    print[ P_OrbEn ] 0
    print[ P_Cartesian ] 0
end
*xyz 0 1
 C        1.0578100000    -0.0167370000     0.0724060000 
 C        2.5188740000     0.2545110000     0.0817600000 
 C        3.1430780000     1.4301280000    -0.0125740000 
 C        4.6407060000     1.3031790000     0.0382520000 
 C        4.8544390000    -0.1924150000     0.0992590000 
 O        4.3610150000    -0.9017630000    -1.0254650000 
 C        3.5389180000    -0.8325360000     0.1469820000 
 H        0.4801110000     0.9077070000     0.0303400000 
 H        0.7536190000    -0.5668410000     0.9689780000 
 H        0.7796850000    -0.6355460000    -0.7868340000 
 H        2.6423450000     2.3820020000    -0.1527070000 
 H        5.0634320000     1.7950420000     0.9216640000 
 H        5.1288110000     1.7438440000    -0.8377520000 
 H        5.7398790000    -0.6156920000     0.5631640000 
 H        3.3420780000    -1.7851840000     0.6294260000 
*
