! RI PBE def2-SVP def2-SVP/J NBO PAL2
% maxcore 2000
% output
    # printlevel mini
    print[ P_Basis ] 0
    print[ P_SCFInfo ] 1
    print[ P_SCFIterInfo ] 1
    print[ P_OrbEn ] 0
    print[ P_Cartesian ] 0
end
*xyz 0 1
 C        1.0355430000     0.0068860000    -0.1249480000 
 C        2.5467190000     0.1886640000    -0.0532270000 
 C        2.9799680000     1.4871480000     0.5839240000 
 C        3.8367240000     1.3086180000     1.5866080000 
 C        4.0569710000    -0.1441530000     1.8096280000 
 O        2.8549480000    -0.8386910000     2.1734870000 
 C        3.2491070000    -0.8445760000     0.8106510000 
 H        0.5694000000     0.8177780000    -0.6892970000 
 H        0.6095820000    -0.0024600000     0.8798540000 
 H        0.7779120000    -0.9340600000    -0.6166850000 
 H        2.9588760000     0.1288690000    -1.0696720000 
 H        2.5830250000     2.4445150000     0.2641200000 
 H        4.2810940000     2.0881740000     2.1922050000 
 H        4.9690620000    -0.5421950000     2.2409150000 
 H        3.5108680000    -1.8184270000     0.4074480000 
*
