! RI PBE def2-SVP def2-SVP/J NBO PAL2
% maxcore 2000
% output
    # printlevel mini
    print[ P_Basis ] 0
    print[ P_SCFInfo ] 1
    print[ P_SCFIterInfo ] 1
    print[ P_OrbEn ] 0
    print[ P_Cartesian ] 0
end
*xyz 0 1
 C        1.0018880000    -0.0458320000    -0.1203260000 
 C        2.3102090000    -0.1122950000     0.1252630000 
 C        3.1863270000    -1.2623040000     0.2757710000 
 C        4.4471270000    -0.8826470000     0.5181040000 
 C        4.5932180000     0.6045630000     0.5644610000 
 C        3.1759720000     1.1012400000     0.3036140000 
 O        2.8223140000     2.2486660000     0.2515700000 
 H        0.3921410000    -0.9330810000    -0.2463690000 
 H        0.5211310000     0.9229400000    -0.1986650000 
 H        2.8478600000    -2.2880350000     0.1990600000 
 H        5.2773660000    -1.5619100000     0.6659580000 
 H        5.2758360000     1.0011640000    -0.1946020000 
 H        4.9509120000     0.9793430000     1.5293630000 
*
