! RI PBE def2-SVP def2-SVP/J NBO PAL2
% maxcore 2000
% output
    # printlevel mini
    print[ P_Basis ] 0
    print[ P_SCFInfo ] 1
    print[ P_SCFIterInfo ] 1
    print[ P_OrbEn ] 0
    print[ P_Cartesian ] 0
end
*xyz 0 1
 C        1.0748670000    -0.0468150000     0.1551590000 
 C        2.3726830000    -0.1120130000    -0.1067120000 
 C        3.2547940000    -1.3185430000    -0.2474700000 
 C        4.5991970000    -0.7228100000    -0.5401570000 
 C        4.5828450000     0.6118970000    -0.5796790000 
 C        3.2181380000     1.1085520000    -0.3178040000 
 O        2.8466620000     2.2580040000    -0.2791240000 
 H        0.4645090000    -0.9301530000     0.3076240000 
 H        0.5955140000     0.9244440000     0.2215280000 
 H        2.9306060000    -1.9834380000    -1.0560490000 
 H        3.2803860000    -1.9282190000     0.6628210000 
 H        5.4766390000    -1.3392490000    -0.6989620000 
 H        5.4212510000     1.2677310000    -0.7713750000 
*
