! RI PBE def2-SVP def2-SVP/J NBO PAL2
% maxcore 2000
% output
    # printlevel mini
    print[ P_Basis ] 0
    print[ P_SCFInfo ] 1
    print[ P_SCFIterInfo ] 1
    print[ P_OrbEn ] 0
    print[ P_Cartesian ] 0
end
*xyz 0 1
 C        0.9950250000    -0.0679010000     0.2685560000 
 C        2.3048320000     0.0149290000     0.0707210000 
 C        3.1983850000     1.2193190000     0.0495510000 
 C        4.3970010000     0.7784610000    -0.8055160000 
 C        4.5508800000    -0.7103580000    -0.5049770000 
 C        3.1380600000    -1.1920790000    -0.2331750000 
 O        2.7543890000    -2.3331050000    -0.2596800000 
 H        0.3792990000     0.8032330000     0.4638320000 
 H        0.5116110000    -1.0387160000     0.2318490000 
 H        3.5354350000     1.4440560000     1.0689170000 
 H        2.7037910000     2.1144910000    -0.3306760000 
 H        5.2978460000     1.3551960000    -0.5929800000 
 H        4.1608270000     0.9170750000    -1.8644750000 
 H        5.1258450000    -0.8676760000     0.4163950000 
 H        5.0264740000    -1.3007250000    -1.2882410000 
*
