! RI PBE def2-SVP def2-SVP/J NBO PAL2
% maxcore 2000
% output
    # printlevel mini
    print[ P_Basis ] 0
    print[ P_SCFInfo ] 1
    print[ P_SCFIterInfo ] 1
    print[ P_OrbEn ] 0
    print[ P_Cartesian ] 0
end
*xyz 0 1
 C        1.0685870000     0.0146670000    -0.0451540000 
 C        2.5524570000    -0.0267370000    -0.1172460000 
 C        3.3430940000    -1.0960380000    -0.1777630000 
 C        4.8006410000    -0.7448020000    -0.1551550000 
 C        4.7921640000     0.7689260000    -0.4035500000 
 C        3.3734460000     1.2410330000    -0.0568520000 
 O        2.8953900000     2.2889830000    -0.8785340000 
 H        0.6333930000    -0.9813300000    -0.1391350000 
 H        0.6540350000     0.6543840000    -0.8288990000 
 H        0.7403530000     0.4459260000     0.9069140000 
 H        2.9877400000    -2.1214990000    -0.1885780000 
 H        5.3861550000    -1.2953560000    -0.8974480000 
 H        5.2381080000    -0.9881260000     0.8210170000 
 H        4.9582860000     0.9673410000    -1.4676770000 
 H        5.5644280000     1.3086120000     0.1461240000 
 H        3.3280260000     1.6607920000     0.9561490000 
 H        2.9259860000     1.9822140000    -1.7901040000 
*
