! RI PBE def2-SVP def2-SVP/J NBO PAL2
% maxcore 2000
% output
    # printlevel mini
    print[ P_Basis ] 0
    print[ P_SCFInfo ] 1
    print[ P_SCFIterInfo ] 1
    print[ P_OrbEn ] 0
    print[ P_Cartesian ] 0
end
*xyz 0 1
 C        0.9571060000     0.0119440000    -0.1170420000 
 C        2.4388180000     0.0239280000    -0.0896200000 
 C        3.2835950000     1.0590450000     0.0118630000 
 C        4.6705510000     0.5761670000    -0.0348410000 
 C        4.6786420000    -0.7541640000    -0.1685620000 
 C        3.2584150000    -1.2497110000    -0.1589560000 
 O        2.9014120000    -2.1471620000    -1.1882610000 
 H        0.5497170000     1.0233940000    -0.1509140000 
 H        0.5462170000    -0.4915600000     0.7645250000 
 H        0.5911870000    -0.5433890000    -0.9865500000 
 H        3.0018610000     2.1004240000     0.1122070000 
 H        5.5407750000     1.2166170000     0.0378320000 
 H        5.5368660000    -1.4089920000    -0.2302910000 
 H        3.0945210000    -1.8028610000     0.7781330000 
 H        3.1262150000    -1.7276910000    -2.0242200000 
*
