! RI PBE def2-SVP def2-SVP/J NBO PAL2
% maxcore 2000
% output
    # printlevel mini
    print[ P_Basis ] 0
    print[ P_SCFInfo ] 1
    print[ P_SCFIterInfo ] 1
    print[ P_OrbEn ] 0
    print[ P_Cartesian ] 0
end
*xyz 0 1
 C        0.9497220000     0.1272170000    -0.0139050000 
 C        2.4286010000     0.1559960000    -0.0124210000 
 C        3.2880900000     1.1764230000    -0.0109600000 
 C        4.6902710000     0.6665680000    -0.0099070000 
 C        4.6977350000    -0.6663140000    -0.0107350000 
 C        3.2678260000    -1.1065050000    -0.0122960000 
 O        2.8456400000    -2.2332170000    -0.0134320000 
 H        0.5312330000     1.1342970000    -0.0137290000 
 H        0.5711550000    -0.4100380000     0.8605450000 
 H        0.5728890000    -0.4090110000    -0.8897330000 
 H        3.0370230000     2.2295910000    -0.0105750000 
 H        5.5569200000     1.3151480000    -0.0086840000 
 H        5.5381940000    -1.3434440000    -0.0103690000 
*
