! RI PBE def2-SVP def2-SVP/J NBO PAL2
% maxcore 2000
% output
    # printlevel mini
    print[ P_Basis ] 0
    print[ P_SCFInfo ] 1
    print[ P_SCFIterInfo ] 1
    print[ P_OrbEn ] 0
    print[ P_Cartesian ] 0
end
*xyz 0 1
 C        0.9906270000     0.1317440000     0.0594930000 
 C        2.4692500000     0.0713420000    -0.0441490000 
 C        3.2795020000    -0.9918180000    -0.0652390000 
 C        4.7320390000    -0.6465730000    -0.1805250000 
 C        4.7487000000     0.8798940000    -0.2344610000 
 C        3.2899820000     1.2991680000    -0.1456550000 
 O        2.8727020000     2.4319550000    -0.1539210000 
 H        0.5474130000    -0.8625880000     0.1257230000 
 H        0.5685890000     0.6503580000    -0.8054630000 
 H        0.6932270000     0.7109150000     0.9377530000 
 H        2.9405030000    -2.0213970000    -0.0054070000 
 H        5.1717350000    -1.1042070000    -1.0728910000 
 H        5.2956190000    -1.0438610000     0.6701430000 
 H        5.1775830000     1.2748470000    -1.1579960000 
 H        5.3018390000     1.3354100000     0.5897950000 
*
