! RI PBE def2-SVP def2-SVP/J NBO PAL2
% maxcore 2000
% output
    # printlevel mini
    print[ P_Basis ] 0
    print[ P_SCFInfo ] 1
    print[ P_SCFIterInfo ] 1
    print[ P_OrbEn ] 0
    print[ P_Cartesian ] 0
end
*xyz 0 1
 C        1.0656780000    -0.0550540000     0.2650510000 
 C        2.5538400000     0.0422940000    -0.0254940000 
 C        2.8340660000     0.0468490000    -1.5189260000 
 C        3.3211370000     1.1214910000     0.7952170000 
 C        4.1343110000     0.0313000000     1.5324360000 
 C        3.3757170000    -1.0137370000     0.7273080000 
 O        3.3992670000    -2.2070140000     0.6864520000 
 H        0.5372190000     0.7983490000    -0.1694420000 
 H        0.8642000000    -0.0655780000     1.3393420000 
 H        0.6511060000    -0.9702760000    -0.1637960000 
 H        2.3463870000     0.9028030000    -1.9941700000 
 H        2.4536330000    -0.8662510000    -1.9825170000 
 H        3.9050900000     0.1095030000    -1.7282570000 
 H        2.6811810000     1.7187970000     1.4453280000 
 H        3.9239060000     1.7946010000     0.1848660000 
 H        3.9736510000    -0.0466930000     2.6101260000 
 H        5.2112290000     0.0250070000     1.3491760000 
*
