! RI PBE def2-SVP def2-SVP/J NBO PAL2
% maxcore 2000
% output
    # printlevel mini
    print[ P_Basis ] 0
    print[ P_SCFInfo ] 1
    print[ P_SCFIterInfo ] 1
    print[ P_OrbEn ] 0
    print[ P_Cartesian ] 0
end
*xyz 0 1
 C        0.9451860000    -0.0480190000    -0.0272610000 
 C        2.4620280000    -0.1294890000     0.0922960000 
 C        3.1054530000    -1.3284270000    -0.5356100000 
 C        4.0592720000    -1.0090540000    -1.4063520000 
 C        4.2455140000     0.4690160000    -1.5298880000 
 C        3.1637380000     1.0312390000    -0.6168150000 
 O        2.8885430000     2.1916910000    -0.4857270000 
 H        0.4666170000    -0.8497580000     0.5389260000 
 H        0.6318530000    -0.1354200000    -1.0702560000 
 H        0.5902340000     0.9093410000     0.3576090000 
 H        2.7277310000    -0.0597280000     1.1571210000 
 H        2.8086110000    -2.3422560000    -0.2922030000 
 H        4.6473160000    -1.7259540000    -1.9665910000 
 H        4.1211750000     0.8564990000    -2.5464410000 
 H        5.2285480000     0.8149990000    -1.1889970000 
*
