! RI PBE def2-SVP def2-SVP/J NBO PAL2
% maxcore 2000
% output
    # printlevel mini
    print[ P_Basis ] 0
    print[ P_SCFInfo ] 1
    print[ P_SCFIterInfo ] 1
    print[ P_OrbEn ] 0
    print[ P_Cartesian ] 0
end
*xyz 0 1
 C        0.9313840000     0.0259330000     0.1404850000 
 C        2.4469690000    -0.0200460000     0.0209670000 
 C        2.9111120000    -1.2514270000    -0.7837330000 
 C        3.3342800000    -0.6799750000    -2.1015360000 
 C        3.3383740000     0.6491480000    -2.1004670000 
 C        2.9885350000     1.2059660000    -0.7523460000 
 O        4.1072790000     1.8334850000    -0.1399220000 
 H        0.5494980000    -0.8453640000     0.6782820000 
 H        0.4651640000     0.0366830000    -0.8498670000 
 H        0.6039110000     0.9211700000     0.6751830000 
 H        2.8844030000    -0.0085460000     1.0225300000 
 H        2.1027540000    -1.9818440000    -0.8976170000 
 H        3.7380060000    -1.7906710000    -0.3065780000 
 H        3.6101060000    -1.3001420000    -2.9478960000 
 H        3.6218560000     1.2822070000    -2.9333440000 
 H        2.2325490000     1.9956320000    -0.8026910000 
 H        4.8663200000     1.2554900000    -0.2628700000 
*
