! RI PBE def2-SVP def2-SVP/J NBO PAL2
% maxcore 2000
% output
    # printlevel mini
    print[ P_Basis ] 0
    print[ P_SCFInfo ] 1
    print[ P_SCFIterInfo ] 1
    print[ P_OrbEn ] 0
    print[ P_Cartesian ] 0
end
*xyz 0 1
 C        1.0119090000     0.0181870000     0.3647820000 
 C        2.4751760000     0.0000700000    -0.0408670000 
 C        2.9266360000    -1.2175320000    -0.8533240000 
 C        3.6187800000    -0.6386730000    -2.0475610000 
 C        3.5760180000     0.6940890000    -2.0844380000 
 C        2.8412910000     1.2024690000    -0.9138530000 
 O        2.5632250000     2.3509860000    -0.6701980000 
 H        0.7858670000    -0.7863320000     1.0680780000 
 H        0.3645110000    -0.1029370000    -0.5081280000 
 H        0.7656990000     0.9714760000     0.8352050000 
 H        3.0928060000     0.0919030000     0.8602130000 
 H        2.0761620000    -1.8331620000    -1.1693370000 
 H        3.5906700000    -1.8851110000    -0.2950860000 
 H        4.0892780000    -1.2648400000    -2.7980860000 
 H        3.9847630000     1.3401980000    -2.8499010000 
*
