! RI PBE def2-SVP def2-SVP/J NBO PAL2
% maxcore 2000
% output
    # printlevel mini
    print[ P_Basis ] 0
    print[ P_SCFInfo ] 1
    print[ P_SCFIterInfo ] 1
    print[ P_OrbEn ] 0
    print[ P_Cartesian ] 0
end
*xyz 0 1
 C        0.9560160000    -0.0242580000    -0.1385510000 
 C        2.4632220000     0.0417890000    -0.0846500000 
 C        3.1535920000     1.0746840000     0.8315910000 
 C        4.2402370000     0.0239970000     1.1587240000 
 C        5.4888960000     0.1470130000     0.3085590000 
 C        3.2449610000    -1.0458520000     0.6763750000 
 O        3.8092040000    -2.1218480000    -0.0266830000 
 H        0.5316290000     0.8753150000    -0.5930450000 
 H        0.5320950000    -0.1180650000     0.8661620000 
 H        0.6122810000    -0.8798590000    -0.7282960000 
 H        2.8790400000     0.1132930000    -1.0942890000 
 H        2.5366520000     1.3172970000     1.7007250000 
 H        3.4920950000     2.0054030000     0.3723330000 
 H        4.5198360000    -0.0561060000     2.2122210000 
 H        5.2489040000     0.2514520000    -0.7521120000 
 H        6.1243820000    -0.7343360000     0.4138430000 
 H        6.0659040000     1.0247270000     0.6117240000 
 H        2.6456580000    -1.4062630000     1.5252750000 
 H        3.1200780000    -2.7627830000    -0.2163170000 
*
