! RI PBE def2-SVP def2-SVP/J NBO PAL2
% maxcore 2000
% output
    # printlevel mini
    print[ P_Basis ] 0
    print[ P_SCFInfo ] 1
    print[ P_SCFIterInfo ] 1
    print[ P_OrbEn ] 0
    print[ P_Cartesian ] 0
end
*xyz 0 1
 C        0.9101760000    -0.0110770000     0.3894210000 
 C        2.3598690000     0.0988100000    -0.0390410000 
 C        3.2580850000     1.1593200000     0.6514670000 
 C        4.2063430000     0.0559970000     1.1915800000 
 C        5.6555850000     0.0687250000     0.7475850000 
 C        3.3046880000    -0.9700790000     0.5073960000 
 O        3.3287450000    -2.1621660000     0.4297710000 
 H        0.3328710000     0.8468900000     0.0367180000 
 H        0.8242030000    -0.0492030000     1.4787350000 
 H        0.4563950000    -0.9181880000    -0.0148580000 
 H        2.4259600000     0.1352260000    -1.1320880000 
 H        2.7462200000     1.7306920000     1.4269140000 
 H        3.7400100000     1.8566300000    -0.0350330000 
 H        4.1486990000    -0.0579640000     2.2797130000 
 H        5.7333600000     0.1810190000    -0.3372290000 
 H        6.1519860000    -0.8634430000     1.0248240000 
 H        6.1981930000     0.8963310000     1.2106560000 
*
