! RI PBE def2-SVP def2-SVP/J NBO PAL2
% maxcore 2000
% output
    # printlevel mini
    print[ P_Basis ] 0
    print[ P_SCFInfo ] 1
    print[ P_SCFIterInfo ] 1
    print[ P_OrbEn ] 0
    print[ P_Cartesian ] 0
end
*xyz 0 1
 C        0.9813060000     0.0487210000     0.4002890000 
 C        2.4054690000     0.0594410000    -0.1500810000 
 C        3.2629990000     1.2127590000     0.3754290000 
 C        3.9358060000     0.6587410000     1.6380830000 
 C        4.2472040000    -0.7885580000     1.2773460000 
 C        3.1396410000    -1.1939450000     0.3216230000 
 O        2.8673070000    -2.3180700000    -0.0038810000 
 H        0.4223400000     0.9108500000     0.0299000000 
 H        0.9744370000     0.0891630000     1.4930460000 
 H        0.4618020000    -0.8609300000     0.0944140000 
 H        2.3569030000     0.0348230000    -1.2422290000 
 H        2.6814190000     2.1165760000     0.5688970000 
 H        4.0302690000     1.4723390000    -0.3606790000 
 H        3.2400190000     0.6922870000     2.4818330000 
 H        4.8184080000     1.2307190000     1.9277740000 
 H        4.3171100000    -1.4851680000     2.1135120000 
 H        5.1890490000    -0.8604370000     0.7191450000 
*
