! RI PBE def2-SVP def2-SVP/J NBO PAL2
% maxcore 2000
% output
    # printlevel mini
    print[ P_Basis ] 0
    print[ P_SCFInfo ] 1
    print[ P_SCFIterInfo ] 1
    print[ P_OrbEn ] 0
    print[ P_Cartesian ] 0
end
*xyz 0 1
 C        1.0870250000    -0.1541220000    -0.0243610000 
 C        2.5505290000     0.0502010000    -0.0188140000 
 C        3.3410570000     1.1499840000    -0.0181160000 
 C        4.6905200000     0.6804170000    -0.0114760000 
 C        4.6275680000    -0.6725380000    -0.0085930000 
 C        5.6481030000    -1.7412210000    -0.0019180000 
 O        3.3263100000    -1.0662270000    -0.0130300000 
 H        0.5806050000     0.8110030000    -0.0286700000 
 H        0.7578300000    -0.7106560000     0.8579520000 
 H        0.7650860000    -0.7147280000    -0.9067740000 
 H        3.0025760000     2.1742720000    -0.0218860000 
 H        5.5917390000     1.2733310000    -0.0091460000 
 H        6.6442580000    -1.2989420000     0.0011860000 
 H        5.5602480000    -2.3832640000    -0.8831900000 
 H        5.5529480000    -2.3792110000     0.8815360000 
*
