! RI PBE def2-SVP def2-SVP/J NBO PAL2
% maxcore 2000
% output
    # printlevel mini
    print[ P_Basis ] 0
    print[ P_SCFInfo ] 1
    print[ P_SCFIterInfo ] 1
    print[ P_OrbEn ] 0
    print[ P_Cartesian ] 0
end
*xyz 0 1
 C        0.9610540000     0.0333980000     0.0712690000 
 C        2.2770170000    -0.0573370000    -0.0858390000 
 C        3.0575970000    -1.3365100000    -0.0655070000 
 C        4.0803960000    -1.3889270000    -1.1954520000 
 C        4.9078260000    -0.1138090000    -1.1779000000 
 C        3.9913370000     1.0888800000    -1.2322350000 
 O        3.0181230000     1.0855060000    -0.1948160000 
 H        0.3665520000    -0.8548650000     0.2369530000 
 H        0.4687460000     0.9974310000     0.0679780000 
 H        2.3707130000    -2.1833660000    -0.1043710000 
 H        3.5911580000    -1.3907240000     0.8923570000 
 H        3.5610550000    -1.4757970000    -2.1567300000 
 H        4.7156410000    -2.2725310000    -1.0931950000 
 H        5.6002920000    -0.0755130000    -2.0241040000 
 H        5.5086040000    -0.0709230000    -0.2628100000 
 H        3.4742200000     1.1238890000    -2.2019550000 
 H        4.5429690000     2.0220880000    -1.1093630000 
*
