! RI PBE def2-SVP def2-SVP/J NBO PAL2
% maxcore 2000
% output
    # printlevel mini
    print[ P_Basis ] 0
    print[ P_SCFInfo ] 1
    print[ P_SCFIterInfo ] 1
    print[ P_OrbEn ] 0
    print[ P_Cartesian ] 0
end
*xyz 0 1
 C        0.9098710000     0.1924810000     0.0110220000 
 C        2.2383980000     0.1108250000     0.0124710000 
 C        2.9530520000    -1.2170050000     0.0155040000 
 C        4.4364870000    -1.1289320000     0.0160620000 
 C        5.0692460000     0.0322250000     0.0145430000 
 C        4.3530040000     1.3290620000     0.0121820000 
 O        2.9438980000     1.2686210000     0.0112680000 
 H        0.3141050000    -0.7097150000     0.0119970000 
 H        0.4079040000     1.1505890000     0.0089100000 
 H        2.6204470000    -1.7944420000    -0.8543510000 
 H        2.6196220000    -1.7909540000     0.8873600000 
 H        4.9928230000    -2.0607650000     0.0178330000 
 H        6.1530870000     0.0873430000     0.0150110000 
 H        4.6502490000     1.9155280000    -0.8673170000 
 H        4.6490280000     1.9180410000     0.8904160000 
*
