! RI PBE def2-SVP def2-SVP/J NBO PAL2
% maxcore 2000
% output
    # printlevel mini
    print[ P_Basis ] 0
    print[ P_SCFInfo ] 1
    print[ P_SCFIterInfo ] 1
    print[ P_OrbEn ] 0
    print[ P_Cartesian ] 0
end
*xyz 0 1
 C        1.1722320000    -0.0711270000     0.2565460000 
 C        2.4358690000     0.1325870000    -0.0859650000 
 C        3.1857780000     1.4309260000    -0.2116240000 
 C        4.5938970000     1.0102710000    -0.6378300000 
 C        4.5222190000    -0.4906380000    -0.7150950000 
 C        5.4722030000    -1.3555790000    -1.0391320000 
 O        3.2639620000    -0.9118380000    -0.3878600000 
 H        0.5359850000     0.7705650000     0.4911180000 
 H        0.7585860000    -1.0689320000     0.3074280000 
 H        3.1830190000     1.9655450000     0.7394820000 
 H        2.7058940000     2.0780130000    -0.9474110000 
 H        5.3541750000     1.3185230000     0.0814420000 
 H        4.8761890000     1.4280560000    -1.6054010000 
 H        6.4601290000    -0.9990560000    -1.2944200000 
 H        5.2806630000    -2.4197170000    -1.0543660000 
*
