! RI PBE def2-SVP def2-SVP/J NBO PAL2
% maxcore 2000
% output
    # printlevel mini
    print[ P_Basis ] 0
    print[ P_SCFInfo ] 1
    print[ P_SCFIterInfo ] 1
    print[ P_OrbEn ] 0
    print[ P_Cartesian ] 0
end
*xyz 0 1
 C        0.9287440000    -0.1313300000    -0.0201840000 
 C        2.3986770000     0.0546450000    -0.1166590000 
 C        3.0438760000     1.2172090000    -0.0935710000 
 C        4.5323040000     1.3393780000    -0.1952240000 
 C        5.1332820000    -0.0242650000    -0.3219110000 
 C        4.3940730000    -1.1235350000    -0.3342770000 
 O        3.0353190000    -1.1549340000    -0.2365220000 
 H        0.4252250000     0.8297550000     0.0747860000 
 H        0.6772420000    -0.7505770000     0.8454110000 
 H        0.5487620000    -0.6446390000    -0.9079340000 
 H        2.4489070000     2.1175220000     0.0045050000 
 H        4.9402910000     1.8610490000     0.6822280000 
 H        4.8131120000     1.9662580000    -1.0535250000 
 H        6.2075470000    -0.1352030000    -0.4074330000 
 H        4.7981500000    -2.1235440000    -0.4244910000 
*
