! RI PBE def2-SVP def2-SVP/J NBO PAL2
% maxcore 2000
% output
    # printlevel mini
    print[ P_Basis ] 0
    print[ P_SCFInfo ] 1
    print[ P_SCFIterInfo ] 1
    print[ P_OrbEn ] 0
    print[ P_Cartesian ] 0
end
*xyz 0 1
 C        1.1300150000     0.1557220000     0.0703240000 
 C        2.5842900000    -0.0772060000    -0.0339000000 
 C        3.3248940000    -1.1756570000     0.0646390000 
 C        4.7621480000    -0.8042030000    -0.1313950000 
 C        4.6567970000     0.6856640000    -0.3518210000 
 C        5.6046870000     1.5823570000    -0.5820630000 
 O        3.3308080000     1.0531070000    -0.2807670000 
 H        0.6083750000    -0.7803610000     0.2653180000 
 H        0.7434310000     0.5912140000    -0.8551030000 
 H        0.9105620000     0.8591210000     0.8781540000 
 H        2.9501390000    -2.1692580000     0.2545080000 
 H        5.2207540000    -1.3031530000    -0.9919190000 
 H        5.3874390000    -1.0354610000     0.7376910000 
 H        6.6393880000     1.2740870000    -0.6341700000 
 H        5.3644730000     2.6277470000    -0.7206880000 
*
