! RI PBE def2-SVP def2-SVP/J NBO PAL2
% maxcore 2000
% output
    # printlevel mini
    print[ P_Basis ] 0
    print[ P_SCFInfo ] 1
    print[ P_SCFIterInfo ] 1
    print[ P_OrbEn ] 0
    print[ P_Cartesian ] 0
end
*xyz 0 1
 C        1.1733160000    -0.1856280000     0.1808250000 
 C        2.6668540000    -0.0099350000    -0.0332350000 
 C        2.9864670000     0.1558710000    -1.5106740000 
 C        3.2514080000     1.1339320000     0.8148630000 
 C        4.5700340000     0.5644390000     1.3196860000 
 C        4.1992800000    -0.8952590000     1.4994660000 
 O        3.3393060000    -1.1975020000     0.4207290000 
 H        0.6280650000     0.7134350000    -0.1191150000 
 H        0.9594320000    -0.3821000000     1.2337920000 
 H        0.7994280000    -1.0265510000    -0.4074450000 
 H        2.4288540000     0.9920950000    -1.9403900000 
 H        2.7199830000    -0.7530710000    -2.0540110000 
 H        4.0536760000     0.3369000000    -1.6581500000 
 H        2.5894340000     1.3504590000     1.6586050000 
 H        3.3650530000     2.0530040000     0.2376500000 
 H        4.9219930000     1.0352550000     2.2392230000 
 H        5.3539490000     0.6639630000     0.5639390000 
 H        3.6850230000    -1.0491440000     2.4605330000 
 H        5.0517360000    -1.5773530000     1.4587090000 
*
