! RI PBE def2-SVP def2-SVP/J NBO PAL2
% maxcore 2000
% output
    # printlevel mini
    print[ P_Basis ] 0
    print[ P_SCFInfo ] 1
    print[ P_SCFIterInfo ] 1
    print[ P_OrbEn ] 0
    print[ P_Cartesian ] 0
end
*xyz 0 1
 C        1.1636760000     0.2134020000    -0.2339230000 
 C        2.5729150000    -0.0401570000     0.2755580000 
 C        3.1615010000    -1.3486300000    -0.2439490000 
 C        3.6545810000    -1.1900650000    -1.6472890000 
 C        3.8705400000     0.0083700000    -2.1737590000 
 C        3.6597150000     1.2601310000    -1.3906170000 
 O        3.4518060000     1.0367230000    -0.0175740000 
 H        0.4776840000    -0.5339370000     0.1716300000 
 H        1.1103520000     0.1576200000    -1.3237160000 
 H        0.8197280000     1.1998610000     0.0838930000 
 H        2.5468950000    -0.0651460000     1.3683700000 
 H        2.4072250000    -2.1411750000    -0.1934260000 
 H        3.9852210000    -1.6678400000     0.4053990000 
 H        3.8336170000    -2.0857470000    -2.2344520000 
 H        4.2055510000     0.1185960000    -3.2008740000 
 H        2.8256340000     1.8363770000    -1.8265700000 
 H        4.5449690000     1.9005350000    -1.4587920000 
*
