! RI PBE def2-SVP def2-SVP/J NBO PAL2
% maxcore 2000
% output
    # printlevel mini
    print[ P_Basis ] 0
    print[ P_SCFInfo ] 1
    print[ P_SCFIterInfo ] 1
    print[ P_OrbEn ] 0
    print[ P_Cartesian ] 0
end
*xyz 0 1
 C        0.9573420000    -0.0730870000     0.2658470000 
 C        2.3544190000    -0.0391730000    -0.2973040000 
 C        2.8234350000    -1.3326580000    -0.9841540000 
 C        3.4684230000    -0.7922890000    -2.2253300000 
 C        3.1799380000     0.5026950000    -2.3343310000 
 C        3.5064140000     1.4865510000    -3.3897530000 
 O        2.4397750000     0.9947380000    -1.3016540000 
 H        0.8916200000    -0.8188500000     1.0619830000 
 H        0.2388280000    -0.3363150000    -0.5139120000 
 H        0.6789210000     0.8972640000     0.6811980000 
 H        3.0676880000     0.2403510000     0.4880820000 
 H        1.9780350000    -1.9943180000    -1.2169810000 
 H        3.5045870000    -1.8985750000    -0.3432650000 
 H        4.0197480000    -1.3703320000    -2.9513770000 
 H        4.0808290000     1.0171090000    -4.1874430000 
 H        4.0842100000     2.3173770000    -2.9757640000 
 H        2.5904770000     1.9078130000    -3.8134620000 
*
