! RI PBE def2-SVP def2-SVP/J NBO PAL2
% maxcore 2000
% output
    # printlevel mini
    print[ P_Basis ] 0
    print[ P_SCFInfo ] 1
    print[ P_SCFIterInfo ] 1
    print[ P_OrbEn ] 0
    print[ P_Cartesian ] 0
end
*xyz 0 1
 C        0.9182350000     0.0059900000     0.0945510000 
 C        2.4233890000     0.0240950000     0.1257920000 
 C        3.0637350000     1.2795650000     0.7134970000 
 C        4.3706130000     0.7592490000     1.2427870000 
 C        5.4419410000     1.4570950000     1.5876970000 
 C        4.2343980000    -0.7444220000     1.2794340000 
 O        2.8850610000    -1.0210570000     0.9701570000 
 H        0.5402960000     0.7999500000    -0.5536340000 
 H        0.5174440000     0.1552020000     1.0999160000 
 H        0.5520930000    -0.9497040000    -0.2845930000 
 H        2.8183250000    -0.1369080000    -0.8914330000 
 H        2.4425330000     1.6502520000     1.5372290000 
 H        3.1863140000     2.0871790000    -0.0100340000 
 H        5.4658810000     2.5381550000     1.5096930000 
 H        6.3367910000     0.9726110000     1.9641030000 
 H        4.4603840000    -1.1748740000     2.2577270000 
 H        4.9046480000    -1.2060890000     0.5381430000 
*
