! RI PBE def2-SVP def2-SVP/J NBO PAL2
% maxcore 2000
% output
    # printlevel mini
    print[ P_Basis ] 0
    print[ P_SCFInfo ] 1
    print[ P_SCFIterInfo ] 1
    print[ P_OrbEn ] 0
    print[ P_Cartesian ] 0
end
*xyz 0 1
 C        1.0855150000    -0.0047990000    -0.2806260000 
 C        2.5068750000     0.1009900000     0.2377850000 
 C        3.2357210000     1.3538200000    -0.2277910000 
 C        3.4296130000     1.3442310000    -1.7383870000 
 C        3.8885530000    -0.0119320000    -2.1653550000 
 C        3.7876860000    -1.0676480000    -1.3604450000 
 O        3.2368920000    -1.0767880000    -0.1268360000 
 H        0.4993280000     0.8594250000     0.0417660000 
 H        0.6091970000    -0.9080120000     0.1041270000 
 H        1.0663370000    -0.0479770000    -1.3713150000 
 H        2.4934540000     0.0759820000     1.3306360000 
 H        4.2131660000     1.3812960000     0.2628050000 
 H        2.6823770000     2.2372450000     0.1012170000 
 H        4.1669520000     2.1014300000    -2.0231860000 
 H        2.5018970000     1.6265710000    -2.2524410000 
 H        4.3437480000    -0.1533000000    -3.1378490000 
 H        4.1597980000    -2.0497250000    -1.6301130000 
*
