! RI PBE def2-SVP def2-SVP/J NBO PAL2
% maxcore 2000
% output
    # printlevel mini
    print[ P_Basis ] 0
    print[ P_SCFInfo ] 1
    print[ P_SCFIterInfo ] 1
    print[ P_OrbEn ] 0
    print[ P_Cartesian ] 0
end
*xyz 0 1
 C        1.1379260000    -0.0604120000     0.0878050000 
 C        2.6366920000     0.0818240000     0.1288260000 
 C        3.1732910000     1.2554870000     0.9350120000 
 C        4.5504080000     0.7482250000     1.3422500000 
 C        4.3225210000    -0.7340720000     1.4566450000 
 C        5.0482550000    -1.6325010000     2.1119060000 
 O        3.2009070000    -1.0721760000     0.7652930000 
 H        0.6920970000     0.8012480000    -0.4147160000 
 H        0.7330670000    -0.1224760000     1.1004120000 
 H        0.8484700000    -0.9610550000    -0.4563210000 
 H        3.0331670000     0.1248040000    -0.8959780000 
 H        2.5437540000     1.4120110000     1.8162190000 
 H        3.1969300000     2.1820210000     0.3601860000 
 H        4.9323900000     1.1804080000     2.2666240000 
 H        5.2826770000     0.9480740000     0.5527010000 
 H        5.9213080000    -1.3189350000     2.6663830000 
 H        4.7840420000    -2.6814850000     2.1036540000 
*
