! RI PBE def2-SVP def2-SVP/J NBO PAL2
% maxcore 2000
% output
    # printlevel mini
    print[ P_Basis ] 0
    print[ P_SCFInfo ] 1
    print[ P_SCFIterInfo ] 1
    print[ P_OrbEn ] 0
    print[ P_Cartesian ] 0
end
*xyz 0 1
 C        1.0748470000    -0.0040450000     0.0377560000 
 C        2.5727420000     0.1773840000    -0.0195550000 
 C        3.1250740000     1.2974410000     0.8533320000 
 C        4.5308550000     0.8011220000     1.1482700000 
 C        4.3098870000    -0.6989740000     1.2981580000 
 C        5.4992920000    -1.5623510000     0.9520220000 
 O        3.2200610000    -1.0097770000     0.4328500000 
 H        0.5668270000     0.8855450000    -0.3441230000 
 H        0.7508510000    -0.1767050000     1.0670240000 
 H        0.7669840000    -0.8590490000    -0.5670460000 
 H        2.8722260000     0.3526000000    -1.0644050000 
 H        2.5415960000     1.3705580000     1.7771830000 
 H        3.0946790000     2.2687710000     0.3566820000 
 H        4.9800780000     1.2487460000     2.0364690000 
 H        5.1934020000     0.9959570000     0.2983500000 
 H        3.9982630000    -0.9167530000     2.3313800000 
 H        5.8308530000    -1.3626080000    -0.0699110000 
 H        5.2425550000    -2.6205380000     1.0289790000 
 H        6.3294480000    -1.3614130000     1.6344850000 
*
