! RI PBE def2-SVP def2-SVP/J NBO PAL2
% maxcore 2000
% output
    # printlevel mini
    print[ P_Basis ] 0
    print[ P_SCFInfo ] 1
    print[ P_SCFIterInfo ] 1
    print[ P_OrbEn ] 0
    print[ P_Cartesian ] 0
end
*xyz 0 1
 C        1.1109680000     0.0014720000     0.0824900000 
 C        2.4325710000    -0.0733790000    -0.0047150000 
 C        3.2036990000    -1.3587170000    -0.0268770000 
 C        4.2119450000    -1.3455340000    -1.1752390000 
 C        5.0161940000    -0.0594910000    -1.1459930000 
 O        4.1846540000     1.0762210000    -1.2087140000 
 C        3.3011050000     1.1463390000    -0.1082260000 
 H        0.4966250000    -0.8891900000     0.1658200000 
 H        0.5969250000     0.9570470000     0.0795800000 
 H        2.5291320000    -2.2153340000    -0.0949270000 
 H        3.7547610000    -1.4541600000     0.9192040000 
 H        3.6839310000    -1.4108120000    -2.1315420000 
 H        4.8852680000    -2.2055940000    -1.1091860000 
 H        5.6892100000     0.0065820000    -2.0032880000 
 H        5.6301840000    -0.0216550000    -0.2301450000 
 H        2.7014000000     2.0476240000    -0.2425470000 
 H        3.8867370000     1.2581820000     0.8213240000 
*
