! RI PBE def2-SVP def2-SVP/J NBO PAL2
% maxcore 2000
% output
    # printlevel mini
    print[ P_Basis ] 0
    print[ P_SCFInfo ] 1
    print[ P_SCFIterInfo ] 1
    print[ P_OrbEn ] 0
    print[ P_Cartesian ] 0
end
*xyz 0 1
 C        1.0609520000    -0.1177510000    -0.0668840000 
 C        2.5424960000    -0.0044620000     0.0736510000 
 C        3.1992540000     1.1520620000     0.0791860000 
 C        4.6907620000     1.2195500000     0.1687120000 
 C        5.2865830000    -0.1420610000    -0.1320420000 
 O        4.6310440000    -1.1525660000     0.6001900000 
 C        3.2893170000    -1.2985000000     0.2141260000 
 H        0.5990130000     0.8612970000    -0.2017930000 
 H        0.6143240000    -0.5899790000     0.8147890000 
 H        0.7919840000    -0.7410180000    -0.9268880000 
 H        2.6452360000     2.0847000000     0.0074320000 
 H        5.0013890000     1.5565610000     1.1653560000 
 H        5.0817240000     1.9561700000    -0.5420980000 
 H        6.3401530000    -0.1924860000     0.1489290000 
 H        5.2103510000    -0.3510890000    -1.2105190000 
 H        2.8145880000    -1.9165810000     0.9836630000 
 H        3.2204090000    -1.8639580000    -0.7329100000 
*
