! RI PBE def2-SVP def2-SVP/J NBO PAL2
% maxcore 2000
% output
    # printlevel mini
    print[ P_Basis ] 0
    print[ P_SCFInfo ] 1
    print[ P_SCFIterInfo ] 1
    print[ P_OrbEn ] 0
    print[ P_Cartesian ] 0
end
*xyz 0 1
 C        0.9228710000     0.1301160000    -0.0441870000 
 C        2.4013910000     0.0283420000    -0.0126420000 
 C        3.1809000000    -1.0544270000    -0.0121410000 
 C        4.5734350000    -0.6473680000     0.0254740000 
 C        5.6758250000    -1.3981430000     0.0384360000 
 O        4.6146340000     0.7182160000     0.0478050000 
 C        3.2921870000     1.2286110000     0.0261610000 
 H        0.4564710000    -0.8549030000    -0.0702320000 
 H        0.5858730000     0.6922680000    -0.9214210000 
 H        0.5465060000     0.6644750000     0.8344120000 
 H        2.8605790000    -2.0867040000    -0.0355160000 
 H        5.5888920000    -2.4748220000     0.0196070000 
 H        6.6599180000    -0.9514790000     0.0675140000 
 H        3.1644250000     1.8744600000    -0.8532500000 
 H        3.1246920000     1.8466580000     0.9187810000 
*
