! RI PBE def2-SVP def2-SVP/J NBO PAL2
% maxcore 2000
% output
    # printlevel mini
    print[ P_Basis ] 0
    print[ P_SCFInfo ] 1
    print[ P_SCFIterInfo ] 1
    print[ P_OrbEn ] 0
    print[ P_Cartesian ] 0
end
*xyz 0 1
 C        1.0624570000     0.0143680000     0.1403690000 
 C        2.5455530000    -0.0112030000     0.0547710000 
 C        3.3259820000    -1.0912410000    -0.0082780000 
 C        4.7813820000    -0.7626750000    -0.0862830000 
 C        4.7970280000     0.7606830000    -0.0615640000 
 O        5.7736680000     1.4551840000    -0.1061440000 
 C        3.3578320000     1.2496530000     0.0294460000 
 H        0.6453250000    -0.9939760000     0.1470240000 
 H        0.6293150000     0.5602200000    -0.7043070000 
 H        0.7298980000     0.5301540000     1.0472420000 
 H        2.9511240000    -2.1087320000    -0.0039610000 
 H        5.2723080000    -1.1214610000    -0.9980990000 
 H        5.3726510000    -1.1508460000     0.7508970000 
 H        3.1299120000     1.8990800000    -0.8240090000 
 H        3.2304660000     1.8693830000     0.9248860000 
*
