! RI PBE def2-SVP def2-SVP/J NBO PAL2
% maxcore 2000
% output
    # printlevel mini
    print[ P_Basis ] 0
    print[ P_SCFInfo ] 1
    print[ P_SCFIterInfo ] 1
    print[ P_OrbEn ] 0
    print[ P_Cartesian ] 0
end
*xyz 0 1
 C        0.9632660000    -0.0155170000     0.0882300000 
 C        2.4488510000    -0.0543490000     0.0496400000 
 C        3.2327690000    -1.1301400000    -0.0329580000 
 C        4.6888330000    -0.7717440000     0.0142870000 
 C        4.6779090000     0.7340130000    -0.2949240000 
 O        4.8764700000     0.9772740000    -1.6747450000 
 C        3.2854370000     1.1938660000     0.1580720000 
 H        0.5309360000    -1.0146750000     0.0141930000 
 H        0.5634470000     0.5945970000    -0.7286130000 
 H        0.6088530000     0.4420610000     1.0182880000 
 H        2.8699860000    -2.1510940000    -0.0853300000 
 H        5.3116930000    -1.3086580000    -0.7067700000 
 H        5.1093000000    -0.9726290000     1.0082780000 
 H        5.4832920000     1.2726230000     0.2064510000 
 H        4.1952220000     0.4928400000    -2.1526390000 
 H        2.9277880000     2.0221670000    -0.4613470000 
 H        3.2970390000     1.5546430000     1.1951980000 
*
