! RI PBE def2-SVP def2-SVP/J NBO PAL2
% maxcore 2000
% output
    # printlevel mini
    print[ P_Basis ] 0
    print[ P_SCFInfo ] 1
    print[ P_SCFIterInfo ] 1
    print[ P_OrbEn ] 0
    print[ P_Cartesian ] 0
end
*xyz 0 1
 C        0.9846230000     0.0848050000     0.2132770000 
 C        2.4772900000     0.0895470000    -0.0550890000 
 C        2.7724880000     0.0700550000    -1.5425730000 
 C        3.2455260000     1.2052200000     0.7174900000 
 C        3.9876390000     0.1200890000     1.4809640000 
 O        4.8251410000     0.1370140000     2.3319010000 
 C        3.2581480000    -0.9947850000     0.7488240000 
 H        0.5040290000     0.9595640000    -0.2342400000 
 H        0.7719830000     0.0988620000     1.2859020000 
 H        0.5141690000    -0.8077990000    -0.2090680000 
 H        2.3410820000     0.9444150000    -2.0383810000 
 H        2.3512220000    -0.8229620000    -2.0132100000 
 H        3.8488570000     0.0734780000    -1.7358630000 
 H        2.6343000000     1.8491420000     1.3557490000 
 H        3.8989080000     1.8396460000     0.1123530000 
 H        2.6542450000    -1.6272390000     1.4052620000 
 H        3.9188630000    -1.6386500000     0.1618930000 
*
