! RI PBE def2-SVP def2-SVP/J NBO PAL2
% maxcore 2000
% output
    # printlevel mini
    print[ P_Basis ] 0
    print[ P_SCFInfo ] 1
    print[ P_SCFIterInfo ] 1
    print[ P_OrbEn ] 0
    print[ P_Cartesian ] 0
end
*xyz 0 1
 C        0.8005360000    -0.0345370000     0.2681640000 
 C        2.2915550000     0.0079930000     0.0039380000 
 C        2.5790310000     0.0359780000    -1.4869650000 
 C        3.0801040000     1.0975900000     0.7804510000 
 C        4.0957270000     0.0447900000     1.2372040000 
 O        5.2839630000     0.1639840000     0.4836410000 
 C        3.1350760000    -1.0598350000     0.7523020000 
 H        0.3024850000     0.8427020000    -0.1565540000 
 H        0.5862930000    -0.0548340000     1.3403800000 
 H        0.3470260000    -0.9233500000    -0.1816850000 
 H        2.1207030000     0.9138970000    -1.9529540000 
 H        2.1726870000    -0.8546050000    -1.9770100000 
 H        3.6530210000     0.0723240000    -1.6797160000 
 H        2.5109260000     1.5148910000     1.6138790000 
 H        3.5038670000     1.9132850000     0.1919290000 
 H        4.3238640000     0.0358510000     2.3096450000 
 H        5.8309060000    -0.6058710000     0.6616870000 
 H        2.5867070000    -1.5240450000     1.5759510000 
 H        3.5851230000    -1.8447870000     0.1390120000 
*
