! RI PBE def2-SVP def2-SVP/J NBO PAL2
% maxcore 2000
% output
    # printlevel mini
    print[ P_Basis ] 0
    print[ P_SCFInfo ] 1
    print[ P_SCFIterInfo ] 1
    print[ P_OrbEn ] 0
    print[ P_Cartesian ] 0
end
*xyz 0 1
 C        0.9934910000     0.0748070000     0.6834320000 
 C        2.2622610000     0.1644320000    -0.1394320000 
 C        3.2810390000     1.2006360000     0.3902880000 
 C        4.0627630000     0.0548660000     1.0631250000 
 C        5.5618200000     0.0937130000     0.9691060000 
 O        6.0819900000    -1.0884770000     1.5457120000 
 C        3.2941410000    -0.9429110000     0.1739380000 
 H        0.3779130000     0.9705360000     0.5609390000 
 H        1.2185520000    -0.0300840000     1.7492380000 
 H        0.3922590000    -0.7889880000     0.3862690000 
 H        2.0055810000     0.2718670000    -1.1965320000 
 H        2.8936930000     1.9944160000     1.0331160000 
 H        3.8568640000     1.6594740000    -0.4187560000 
 H        3.7802150000    -0.0569290000     2.1134580000 
 H        5.9403820000     0.9861810000     1.4902390000 
 H        5.8559530000     0.1769970000    -0.0884810000 
 H        7.0370830000    -1.0810220000     1.4542900000 
 H        2.9185580000    -1.8525690000     0.6459610000 
 H        3.8812500000    -1.2247460000    -0.7041030000 
*
