! RI PBE def2-SVP def2-SVP/J NBO PAL2
% maxcore 2000
% output
    # printlevel mini
    print[ P_Basis ] 0
    print[ P_SCFInfo ] 1
    print[ P_SCFIterInfo ] 1
    print[ P_OrbEn ] 0
    print[ P_Cartesian ] 0
end
*xyz 0 1
 C        0.9457540000     0.0022970000    -0.0148650000 
 C        2.4099420000     0.1887020000    -0.0097080000 
 C        3.2256590000     1.2654500000    -0.0094170000 
 C        4.5750610000     0.7778910000    -0.0029260000 
 C        4.4544480000    -0.5711150000     0.0001910000 
 O        5.3147490000    -1.5960890000     0.0062260000 
 O        3.1730540000    -0.9539750000    -0.0037320000 
 H        0.4554400000     0.9759900000    -0.0193150000 
 H        0.6062910000    -0.5476120000     0.8680020000 
 H        0.6130980000    -0.5522510000    -0.8974230000 
 H        2.9100430000     2.2970690000    -0.0133690000 
 H        5.4884580000     1.3503800000    -0.0009270000 
 H        6.2084920000    -1.2436270000     0.0087620000 
*
