! RI PBE def2-SVP def2-SVP/J NBO PAL2
% maxcore 2000
% output
    # printlevel mini
    print[ P_Basis ] 0
    print[ P_SCFInfo ] 1
    print[ P_SCFIterInfo ] 1
    print[ P_OrbEn ] 0
    print[ P_Cartesian ] 0
end
*xyz 0 1
 C        1.0597670000    -0.1934220000     0.3089910000 
 C        2.3175150000    -0.0248700000    -0.0606770000 
 C        3.1356750000     1.2401500000    -0.1206470000 
 C        4.4935200000     0.7697630000    -0.6235260000 
 C        4.3457560000    -0.7213840000    -0.8094490000 
 O        5.1529940000    -1.5091830000    -1.1852170000 
 O        3.0798680000    -1.0951190000    -0.4676690000 
 H        0.4736920000     0.6580170000     0.6263460000 
 H        0.5991230000    -1.1717150000     0.3013710000 
 H        3.1934030000     1.7029230000     0.8656100000 
 H        2.6696400000     1.9634580000    -0.7913070000 
 H        5.3122230000     0.9481790000     0.0750480000 
 H        4.7887450000     1.2057930000    -1.5789640000 
*
