! RI PBE def2-SVP def2-SVP/J NBO PAL2
% maxcore 2000
% output
    # printlevel mini
    print[ P_Basis ] 0
    print[ P_SCFInfo ] 1
    print[ P_SCFIterInfo ] 1
    print[ P_OrbEn ] 0
    print[ P_Cartesian ] 0
end
*xyz 0 1
 C        1.0699710000    -0.1970790000     0.3878090000 
 C        2.5212370000     0.0375040000     0.0745470000 
 C        3.2095350000     1.2640950000     0.6876660000 
 C        4.1723280000     0.2491850000     1.3046500000 
 C        5.5674360000     0.2089960000     0.7330050000 
 O        6.2174260000    -0.9893200000     1.0749280000 
 O        3.3946880000    -0.8573410000     0.7998960000 
 H        0.4462000000     0.5230740000    -0.1492120000 
 H        0.8832130000    -0.0923260000     1.4590100000 
 H        0.7702500000    -1.2022110000     0.0822940000 
 H        2.6952900000    -0.0603790000    -1.0041820000 
 H        2.5931960000     1.8021540000     1.4077290000 
 H        3.6525510000     1.9720100000    -0.0138240000 
 H        4.2163320000     0.2188370000     2.3984500000 
 H        6.1638870000     1.0312390000     1.1396460000 
 H        5.5162200000     0.3366440000    -0.3593760000 
 H        5.6179520000    -1.7033820000     0.8309730000 
*
