! RI PBE def2-SVP def2-SVP/J NBO PAL2
% maxcore 2000
% output
    # printlevel mini
    print[ P_Basis ] 0
    print[ P_SCFInfo ] 1
    print[ P_SCFIterInfo ] 1
    print[ P_OrbEn ] 0
    print[ P_Cartesian ] 0
end
*xyz 0 1
 C        1.0429840000    -0.1375000000     0.1233450000 
 C        2.5437550000    -0.0223100000     0.1158820000 
 C        3.1193500000     1.1463320000     0.9116360000 
 C        4.4642500000     0.6021840000     1.3576770000 
 C        4.2343680000    -0.8929270000     1.4151630000 
 O        4.8968740000    -1.7238900000     1.9570560000 
 O        3.1128470000    -1.1945470000     0.7250530000 
 H        0.6001590000     0.7446580000    -0.3452930000 
 H        0.6709240000    -0.2107520000     1.1476420000 
 H        0.7161060000    -1.0200170000    -0.4284970000 
 H        2.9110940000     0.0099330000    -0.9177390000 
 H        2.4813430000     1.3483400000     1.7769210000 
 H        3.1800230000     2.0577210000     0.3162610000 
 H        4.8235700000     0.9658770000     2.3188580000 
 H        5.2512740000     0.7864000000     0.6193460000 
*
