! RI PBE def2-SVP def2-SVP/J NBO PAL2
% maxcore 2000
% output
    # printlevel mini
    print[ P_Basis ] 0
    print[ P_SCFInfo ] 1
    print[ P_SCFIterInfo ] 1
    print[ P_OrbEn ] 0
    print[ P_Cartesian ] 0
end
*xyz 0 1
 C        1.0127070000    -0.0523960000     0.3151220000 
 C        2.4640970000     0.1302650000    -0.0276800000 
 C        3.2767100000     1.1688650000     0.7531680000 
 C        4.1913210000    -0.0176560000     1.1087940000 
 O        3.2921390000    -0.9420450000     0.4739010000 
 C        5.5207310000    -0.0017550000     0.5204890000 
 C        6.6218640000     0.0267600000     0.0427750000 
 H        0.4281700000     0.7970800000    -0.0493070000 
 H        0.8769250000    -0.1338060000     1.3960380000 
 H        0.6214370000    -0.9594770000    -0.1511420000 
 H        2.5917730000     0.2200750000    -1.1134600000 
 H        2.7537520000     1.5860650000     1.6138220000 
 H        3.7394830000     1.9657510000     0.1753080000 
 H        4.2765600000    -0.2314590000     2.1796590000 
 H        7.5971300000     0.0427420000    -0.3833960000 
*
