! RI PBE def2-SVP def2-SVP/J NBO PAL2
% maxcore 2000
% output
    # printlevel mini
    print[ P_Basis ] 0
    print[ P_SCFInfo ] 1
    print[ P_SCFIterInfo ] 1
    print[ P_OrbEn ] 0
    print[ P_Cartesian ] 0
end
*xyz 0 1
 C        1.0700440000    -0.0451790000     0.2356050000 
 C        2.5592150000     0.1153170000     0.0434150000 
 C        3.2911310000     1.1920460000     0.8496090000 
 C        4.1203130000     0.0251940000     1.3863500000 
 O        3.3163150000    -0.9380190000     0.6777570000 
 C        2.8852990000     0.1033030000    -1.4355180000 
 O        3.1202810000     1.0763090000    -2.0948280000 
 H        0.8417370000    -0.1140880000     1.3008820000 
 H        0.7130060000    -0.9567280000    -0.2510320000 
 H        0.5377600000     0.8093280000    -0.1894760000 
 H        2.6669380000     1.6893430000     1.5909910000 
 H        3.8132950000     1.9334440000     0.2473700000 
 H        4.0811290000    -0.1413190000     2.4656050000 
 H        5.1625590000    -0.0007500000     1.0543930000 
 H        2.8947690000    -0.9186990000    -1.8743930000 
*
