! RI PBE def2-SVP def2-SVP/J NBO PAL2
% maxcore 2000
% output
    # printlevel mini
    print[ P_Basis ] 0
    print[ P_SCFInfo ] 1
    print[ P_SCFIterInfo ] 1
    print[ P_OrbEn ] 0
    print[ P_Cartesian ] 0
end
*xyz 0 1
 C        1.0121180000     0.0231890000     0.3501360000 
 C        2.4646070000     0.1736940000    -0.0007350000 
 C        3.3010450000     1.1904280000     0.7886320000 
 C        4.1629210000    -0.0182830000     1.1492430000 
 O        3.2708760000    -0.9246990000     0.4949990000 
 C        5.5434890000    -0.0664120000     0.5454610000 
 O        6.2943440000     0.8680500000     0.5125110000 
 H        0.4473160000     0.8891620000    -0.0060130000 
 H        0.8815550000    -0.0590280000     1.4316610000 
 H        0.5954170000    -0.8716110000    -0.1175020000 
 H        2.5895300000     0.2617610000    -1.0868410000 
 H        2.7749540000     1.6360240000     1.6321690000 
 H        3.8100020000     1.9671270000     0.2200660000 
 H        4.2625230000    -0.2403750000     2.2213730000 
 H        5.8186130000    -1.0587170000     0.1262390000 
*
