! RI PBE def2-SVP def2-SVP/J NBO PAL2
% maxcore 2000
% output
    # printlevel mini
    print[ P_Basis ] 0
    print[ P_SCFInfo ] 1
    print[ P_SCFIterInfo ] 1
    print[ P_OrbEn ] 0
    print[ P_Cartesian ] 0
end
*xyz 0 1
 C        0.9859700000    -0.0346060000    -0.0232590000 
 C        2.4515570000     0.1590070000    -0.0270360000 
 C        3.2538520000     1.2570980000    -0.0243790000 
 C        2.8482040000     2.6893930000    -0.0163070000 
 C        4.5970650000     0.7550310000    -0.0310710000 
 C        4.5027360000    -0.5916320000    -0.0371080000 
 O        3.2059740000    -0.9725450000    -0.0347830000 
 H        0.4773890000     0.9291070000    -0.0173090000 
 H        0.6610370000    -0.5958960000     0.8576370000 
 H        0.6554570000    -0.5879460000    -0.9071010000 
 H        1.7628540000     2.7999410000    -0.0120650000 
 H        3.2304100000     3.2162780000    -0.8953360000 
 H        3.2364480000     3.2080600000     0.8649590000 
 H        5.5080480000     1.3337440000    -0.0312550000 
 H        5.2300080000    -1.3866230000    -0.0431770000 
*
