! RI PBE def2-SVP def2-SVP/J NBO PAL2
% maxcore 2000
% output
    # printlevel mini
    print[ P_Basis ] 0
    print[ P_SCFInfo ] 1
    print[ P_SCFIterInfo ] 1
    print[ P_OrbEn ] 0
    print[ P_Cartesian ] 0
end
*xyz 0 1
 C        1.0820770000    -0.0578390000    -0.1649620000 
 C        2.5914950000     0.0129480000    -0.0655900000 
 C        3.1228780000     1.0983560000     0.8637020000 
 C        4.5318800000     0.6098580000     1.1784520000 
 O        4.5357830000    -0.7947770000     0.9602140000 
 C        3.2494600000    -1.2245340000     0.5372760000 
 C        3.4049130000    -2.4052170000    -0.3884210000 
 H        0.6680490000     0.8685800000    -0.5700550000 
 H        0.6352130000    -0.2190490000     0.8208040000 
 H        0.7598250000    -0.8739030000    -0.8165740000 
 H        3.0191920000     0.1607570000    -1.0659490000 
 H        2.5114610000     1.1323010000     1.7713760000 
 H        3.1110390000     2.0944270000     0.4172640000 
 H        4.8275530000     0.8216240000     2.2112190000 
 H        5.2757180000     1.0659920000     0.5149480000 
 H        2.6625680000    -1.5329010000     1.4206070000 
 H        3.9766940000    -2.1208880000    -1.2751030000 
 H        2.4278530000    -2.7796530000    -0.7038320000 
 H        3.9329480000    -3.2181530000     0.1133440000 
*
