! RI PBE def2-SVP def2-SVP/J NBO PAL2
% maxcore 2000
% output
    # printlevel mini
    print[ P_Basis ] 0
    print[ P_SCFInfo ] 1
    print[ P_SCFIterInfo ] 1
    print[ P_OrbEn ] 0
    print[ P_Cartesian ] 0
end
*xyz 0 1
 C        1.1666300000    -0.0227250000     0.4018000000 
 C        2.4380710000     0.0190090000     0.0200160000 
 C        3.2409450000     1.2620870000    -0.2585170000 
 C        4.6159920000     0.7267700000    -0.6576440000 
 O        4.5552640000    -0.6945670000    -0.5927310000 
 C        3.3264360000    -1.1310940000    -0.2101850000 
 C        3.0592780000    -2.4302600000    -0.0888100000 
 H        0.5915280000     0.8842650000     0.5458370000 
 H        0.6592360000    -0.9626110000     0.5826760000 
 H        3.2956550000     1.8998180000     0.6260140000 
 H        2.7875900000     1.8509530000    -1.0583510000 
 H        5.4072530000     1.0624860000     0.0173440000 
 H        4.8938160000     1.0072490000    -1.6767830000 
 H        3.8153990000    -3.1756590000    -0.2922640000 
 H        2.0761080000    -2.7566310000     0.2168880000 
*
