! RI PBE def2-SVP def2-SVP/J NBO PAL2
% maxcore 2000
% output
    # printlevel mini
    print[ P_Basis ] 0
    print[ P_SCFInfo ] 1
    print[ P_SCFIterInfo ] 1
    print[ P_OrbEn ] 0
    print[ P_Cartesian ] 0
end
*xyz 0 1
 C        1.0411390000     0.0719220000     0.1276070000 
 C        2.5235830000    -0.0000800000     0.1150280000 
 C        3.3111010000    -1.0683350000    -0.0217260000 
 C        4.7356890000    -0.6450830000     0.0283640000 
 O        4.6880300000     0.7635440000     0.2063510000 
 C        3.3886120000     1.1704000000     0.2607940000 
 C        3.0392090000     2.4472150000     0.4228540000 
 H        0.5966410000    -0.9157870000     0.0040030000 
 H        0.6771870000     0.7182670000    -0.6760450000 
 H        0.6812950000     0.4981280000     1.0683170000 
 H        2.9941060000    -2.0947770000    -0.1505910000 
 H        5.2847940000    -0.8721510000    -0.8946900000 
 H        5.2889350000    -1.0941610000     0.8634420000 
 H        3.7818080000     3.2269510000     0.5195680000 
 H        1.9933000000     2.7155570000     0.4592040000 
*
