! RI PBE def2-SVP def2-SVP/J NBO PAL2
% maxcore 2000
% output
    # printlevel mini
    print[ P_Basis ] 0
    print[ P_SCFInfo ] 1
    print[ P_SCFIterInfo ] 1
    print[ P_OrbEn ] 0
    print[ P_Cartesian ] 0
end
*xyz 0 1
 C        0.8354520000    -0.0265030000    -0.0118340000 
 C        2.3434920000    -0.0070260000    -0.0664510000 
 C        3.1122450000     1.0908790000     0.6964660000 
 C        4.1819480000     0.0431560000     1.0568050000 
 O        5.2335860000    -0.0227970000     0.1171440000 
 C        3.1412280000    -1.0518460000     0.7482570000 
 C        3.5816630000    -2.3408640000     0.0993710000 
 H        0.4053780000     0.8317770000    -0.5362330000 
 H        0.4808810000     0.0046070000     1.0233330000 
 H        0.4311130000    -0.9310630000    -0.4754240000 
 H        2.6866160000    -0.0334170000    -1.1052900000 
 H        2.5633890000     1.4225550000     1.5826710000 
 H        3.4505310000     1.9678360000     0.1390870000 
 H        4.5814540000     0.0671070000     2.0781710000 
 H        5.7471600000     0.7856320000     0.1878070000 
 H        2.5920660000    -1.2589660000     1.6744250000 
 H        4.1883200000    -2.1412400000    -0.7853470000 
 H        2.7149540000    -2.9351470000    -0.2039220000 
 H        4.1788240000    -2.9501790000     0.7831520000 
*
