! RI PBE def2-SVP def2-SVP/J NBO PAL2
% maxcore 2000
% output
    # printlevel mini
    print[ P_Basis ] 0
    print[ P_SCFInfo ] 1
    print[ P_SCFIterInfo ] 1
    print[ P_OrbEn ] 0
    print[ P_Cartesian ] 0
end
*xyz 0 1
 C        0.8230660000     0.0367670000     0.0382430000 
 C        2.3113330000     0.0521810000     0.0380970000 
 C        3.1357740000     1.1318760000     0.0349890000 
 O        2.9379010000     2.4563330000     0.0312670000 
 O        4.4274850000     0.7861010000     0.0358730000 
 C        4.4615950000    -0.5785850000     0.0397220000 
 C        3.2066030000    -1.0710130000     0.0412140000 
 H        0.4042890000     1.0475010000     0.0355970000 
 H        0.4229600000    -0.4699210000     0.9211610000 
 H        0.4228190000    -0.4746090000    -0.8419040000 
 H        1.9911500000     2.6222270000     0.0307560000 
 H        5.4417600000    -1.0225300000     0.0409080000 
 H        2.9315760000    -2.1147290000     0.0441880000 
*
