! RI PBE def2-SVP def2-SVP/J NBO PAL2
% maxcore 2000
% output
    # printlevel mini
    print[ P_Basis ] 0
    print[ P_SCFInfo ] 1
    print[ P_SCFIterInfo ] 1
    print[ P_OrbEn ] 0
    print[ P_Cartesian ] 0
end
*xyz 0 1
 C        1.0710630000     0.0982400000    -0.1541390000 
 C        2.3916540000    -0.0223630000    -0.0187260000 
 C        3.2582010000    -1.1699650000     0.1310790000 
 C        4.5024880000    -0.6942540000     0.2247300000 
 O        4.5872210000     0.6713620000     0.1553700000 
 C        3.3034450000     1.1609240000     0.0027650000 
 O        3.0769940000     2.3251150000    -0.0856320000 
 H        0.4155370000    -0.7639990000    -0.1688270000 
 H        0.6294020000     1.0828590000    -0.2531520000 
 H        2.9672970000    -2.2077400000     0.1619870000 
 H        5.4479890000    -1.2007890000     0.3454550000 
*
