! RI PBE def2-SVP def2-SVP/J NBO PAL2
% maxcore 2000
% output
    # printlevel mini
    print[ P_Basis ] 0
    print[ P_SCFInfo ] 1
    print[ P_SCFIterInfo ] 1
    print[ P_OrbEn ] 0
    print[ P_Cartesian ] 0
end
*xyz 0 1
 C        1.0195500000    -0.1518010000     0.3376650000 
 C        2.2781690000    -0.0078180000    -0.0501070000 
 C        3.1115460000     1.2232280000    -0.2023590000 
 C        4.4612250000     0.6730880000    -0.6875970000 
 O        4.3416260000    -0.7471050000    -0.7774550000 
 C        3.1130140000    -1.1823380000    -0.4237060000 
 O        2.8127420000    -2.3386770000    -0.4341320000 
 H        0.3967900000     0.6913460000     0.6135190000 
 H        0.5895680000    -1.1461530000     0.3834270000 
 H        3.2149570000     1.7601000000     0.7427670000 
 H        2.6789620000     1.9170860000    -0.9259260000 
 H        5.2765640000     0.8938070000     0.0033250000 
 H        4.7343860000     1.0458560000    -1.6762220000 
*
