! RI PBE def2-SVP def2-SVP/J NBO PAL2
% maxcore 2000
% output
    # printlevel mini
    print[ P_Basis ] 0
    print[ P_SCFInfo ] 1
    print[ P_SCFIterInfo ] 1
    print[ P_OrbEn ] 0
    print[ P_Cartesian ] 0
end
*xyz 0 1
 C        0.8121130000    -0.0170930000     0.0618760000 
 C        2.3183030000     0.0575140000    -0.1062950000 
 C        2.7395410000     0.0329360000    -1.5638320000 
 C        3.0435320000     1.0769670000     0.7848810000 
 O        3.6917780000     0.0021110000     1.5203420000 
 C        3.0759190000    -0.9460970000     0.7610150000 
 O        3.1786770000    -2.1237890000     0.8466420000 
 H        0.3304970000     0.8243780000    -0.4432220000 
 H        0.5216480000     0.0026170000     1.1146540000 
 H        0.4287690000    -0.9408310000    -0.3763100000 
 H        2.2973400000     0.8754280000    -2.1021760000 
 H        2.4002740000    -0.8896600000    -2.0391920000 
 H        3.8250820000     0.0883670000    -1.6716580000 
 H        2.4130440000     1.6694510000     1.4491610000 
 H        3.7860830000     1.7051000000     0.2910330000 
*
