! RI PBE def2-SVP def2-SVP/J NBO PAL2
% maxcore 2000
% output
    # printlevel mini
    print[ P_Basis ] 0
    print[ P_SCFInfo ] 1
    print[ P_SCFIterInfo ] 1
    print[ P_OrbEn ] 0
    print[ P_Cartesian ] 0
end
*xyz 0 1
 C        0.8784940000     0.0520650000     0.0022280000 
 C        2.4006220000    -0.0196940000     0.0650600000 
 C        3.0332070000    -1.2324810000    -0.5368230000 
 C        3.8705770000    -0.8302620000    -1.4807620000 
 O        3.9236220000     0.5373020000    -1.6390500000 
 C        3.0478880000     1.0973880000    -0.7398180000 
 O        2.8776840000     2.2722100000    -0.6737490000 
 H        0.4340970000    -0.7209300000     0.6313920000 
 H        0.5248420000    -0.0933410000    -1.0202730000 
 H        0.5356120000     1.0271400000     0.3516380000 
 H        2.7170470000     0.1187620000     1.1067850000 
 H        2.8423980000    -2.2560510000    -0.2533410000 
 H        4.5162210000    -1.3840990000    -2.1453170000 
*
