! RI PBE def2-SVP def2-SVP/J NBO PAL2
% maxcore 2000
% output
    # printlevel mini
    print[ P_Basis ] 0
    print[ P_SCFInfo ] 1
    print[ P_SCFIterInfo ] 1
    print[ P_OrbEn ] 0
    print[ P_Cartesian ] 0
end
*xyz 0 1
 C        0.8289040000    -0.1284330000     0.2844770000 
 C        2.3265790000    -0.0384340000     0.1262730000 
 C        3.1011600000     1.0830270000     0.8713950000 
 C        4.1842510000     0.0403400000     1.0771800000 
 O        5.3808050000     0.0586660000     1.0509370000 
 C        3.2051570000    -1.0954540000     0.8653940000 
 O        3.6426490000    -2.2528830000     0.2426580000 
 H        0.3266210000     0.7244960000    -0.1785440000 
 H        0.5512040000    -0.1463590000     1.3424480000 
 H        0.4421730000    -1.0383490000    -0.1806160000 
 H        2.6149680000    -0.0343980000    -0.9288000000 
 H        2.6149410000     1.3609620000     1.8107960000 
 H        3.3880100000     1.9821460000     0.3275510000 
 H        2.7061690000    -1.3455390000     1.8126740000 
 H        4.5641100000    -2.1193890000    -0.0070130000 
*
