! RI PBE def2-SVP def2-SVP/J NBO PAL2
% maxcore 2000
% output
    # printlevel mini
    print[ P_Basis ] 0
    print[ P_SCFInfo ] 1
    print[ P_SCFIterInfo ] 1
    print[ P_OrbEn ] 0
    print[ P_Cartesian ] 0
end
*xyz 0 1
 C        0.8899200000    -0.1151300000     0.5695230000 
 C        2.2359650000     0.0631450000    -0.1113800000 
 C        3.1587540000     1.1534560000     0.5016240000 
 C        3.9162050000     0.0585090000     1.3094680000 
 O        5.2939060000     0.0879350000     1.4656000000 
 C        3.3268290000    -0.9171120000     0.3086670000 
 O        3.7867100000    -1.9091990000    -0.1787180000 
 H        0.2397330000     0.7349550000     0.3504570000 
 H        0.9916560000    -0.1850080000     1.6552450000 
 H        0.3924320000    -1.0216340000     0.2188350000 
 H        2.1133760000     0.1058840000    -1.1959460000 
 H        2.6735990000     1.9312660000     1.0907540000 
 H        3.8125560000     1.6039000000    -0.2456880000 
 H        3.4352190000    -0.0566970000     2.2887630000 
 H        5.6696590000    -0.5615690000     0.8603950000 
*
