! RI PBE def2-SVP def2-SVP/J NBO PAL2
% maxcore 2000
% output
    # printlevel mini
    print[ P_Basis ] 0
    print[ P_SCFInfo ] 1
    print[ P_SCFIterInfo ] 1
    print[ P_OrbEn ] 0
    print[ P_Cartesian ] 0
end
*xyz 0 1
 C        0.8728910000    -0.0583880000     0.0095070000 
 C        2.3836500000     0.0293890000     0.0447310000 
 C        2.9949170000     1.1550960000     0.8667730000 
 C        4.3470030000     0.5708000000     1.2477800000 
 O        4.1428310000    -0.8423170000     1.3309820000 
 C        3.0332070000    -1.2038150000     0.6501700000 
 O        2.6746530000    -2.3390250000     0.5685760000 
 H        0.4430790000     0.7998780000    -0.5108080000 
 H        0.4626670000    -0.0840630000     1.0219670000 
 H        0.5581570000    -0.9693600000    -0.5012920000 
 H        2.7694470000     0.0795140000    -0.9829920000 
 H        2.3909380000     1.3298080000     1.7621570000 
 H        3.0837720000     2.0988240000     0.3279320000 
 H        4.7219060000     0.9094750000     2.2133620000 
 H        5.1083830000     0.7668830000     0.4858450000 
*
