! RI PBE def2-SVP def2-SVP/J NBO PAL2
% maxcore 2000
% output
    # printlevel mini
    print[ P_Basis ] 0
    print[ P_SCFInfo ] 1
    print[ P_SCFIterInfo ] 1
    print[ P_OrbEn ] 0
    print[ P_Cartesian ] 0
end
*xyz 0 1
 C        0.9871690000     0.0650390000     0.2875970000 
 C        2.4986180000     0.0180910000     0.0964070000 
 C        2.9950300000    -1.3715540000    -0.3124680000 
 C        2.6975270000    -1.6703590000    -1.7715280000 
 O        3.2364820000    -0.6867850000    -2.6266170000 
 C        2.6935960000     0.5866190000    -2.3568290000 
 C        2.9908370000     1.0355110000    -0.9366910000 
 H        0.6701680000    -0.6494760000     1.0519370000 
 H        0.4420720000    -0.1734790000    -0.6284930000 
 H        0.6671910000     1.0599180000     0.6086410000 
 H        2.9547860000     0.2689310000     1.0606090000 
 H        2.5444840000    -2.1435500000     0.3203980000 
 H        4.0791580000    -1.4262850000    -0.1679950000 
 H        1.6116060000    -1.7503420000    -1.9390370000 
 H        3.1464360000    -2.6191710000    -2.0729760000 
 H        1.6075620000     0.5715720000    -2.5411780000 
 H        3.1396610000     1.2708190000    -3.0817650000 
 H        2.5372380000     2.0162960000    -0.7583730000 
 H        4.0746580000     1.1570940000    -0.8379410000 
*
