! RI PBE def2-SVP def2-SVP/J NBO PAL2
% maxcore 2000
% output
    # printlevel mini
    print[ P_Basis ] 0
    print[ P_SCFInfo ] 1
    print[ P_SCFIterInfo ] 1
    print[ P_OrbEn ] 0
    print[ P_Cartesian ] 0
end
*xyz 0 1
 C        1.0617140000    -0.0277400000     0.1407060000 
 C        2.3894720000    -0.0408700000     0.1058420000 
 C        3.2037550000    -1.2984420000     0.0689630000 
 C        4.1861780000    -1.2444360000    -1.0975640000 
 O        4.9831040000    -0.0850620000    -1.0513630000 
 C        4.2081910000     1.0869060000    -1.1372550000 
 C        3.2273380000     1.1991210000     0.0264430000 
 H        0.4873800000    -0.9475390000     0.1757610000 
 H        0.5048570000     0.9033980000     0.1442490000 
 H        2.5646960000    -2.1812030000    -0.0153110000 
 H        3.7828550000    -1.3885710000     0.9961480000 
 H        3.6316580000    -1.2800880000    -2.0484210000 
 H        4.8721310000    -2.0934680000    -1.0709230000 
 H        3.6541370000     1.1006350000    -2.0889520000 
 H        4.9100590000     1.9232520000    -1.1393070000 
 H        2.6050290000     2.0904090000    -0.0880340000 
 H        3.8083340000     1.3098080000     0.9502080000 
*
