! RI PBE def2-SVP def2-SVP/J NBO PAL2
% maxcore 2000
% output
    # printlevel mini
    print[ P_Basis ] 0
    print[ P_SCFInfo ] 1
    print[ P_SCFIterInfo ] 1
    print[ P_OrbEn ] 0
    print[ P_Cartesian ] 0
end
*xyz 0 1
 C        0.9468910000     0.0421700000    -0.1911640000 
 C        2.2794240000     0.0472720000    -0.0275290000 
 C        3.0779250000     1.2578960000     0.0699210000 
 C        4.4007950000     1.2082990000     0.2324210000 
 O        5.1147390000     0.0581310000     0.3207000000 
 C        4.4093550000    -1.0974700000     0.2346300000 
 C        3.0868900000    -1.1572000000     0.0722360000 
 H        0.3863660000     0.9661920000    -0.2604610000 
 H        0.3932400000    -0.8861190000    -0.2586860000 
 H        2.6012800000     2.2286330000     0.0108780000 
 H        5.0422800000     2.0755290000     0.3107610000 
 H        5.0572590000    -1.9597630000     0.3146280000 
 H        2.6174670000    -2.1315610000     0.0150560000 
*
