! RI PBE def2-SVP def2-SVP/J NBO PAL2
% maxcore 2000
% output
    # printlevel mini
    print[ P_Basis ] 0
    print[ P_SCFInfo ] 1
    print[ P_SCFIterInfo ] 1
    print[ P_OrbEn ] 0
    print[ P_Cartesian ] 0
end
*xyz 0 1
 C        0.9533570000     0.0709910000    -0.1418000000 
 C        2.4437560000     0.0853330000    -0.0572870000 
 C        3.1654640000     1.2012060000    -0.1114990000 
 C        4.6534330000     1.2134590000     0.0283880000 
 O        5.1843290000    -0.0118180000     0.4682030000 
 C        4.6169260000    -1.1055200000    -0.2138520000 
 C        3.1381360000    -1.2367520000     0.0964060000 
 H        0.5444430000     1.0787360000    -0.2311550000 
 H        0.5178080000    -0.3970390000     0.7479210000 
 H        0.6137920000    -0.5168780000    -1.0014260000 
 H        2.6816970000     2.1641400000    -0.2548090000 
 H        4.9566510000     1.9603130000     0.7687970000 
 H        5.1191390000     1.5081680000    -0.9288990000 
 H        5.1726050000    -1.9900150000     0.1034800000 
 H        4.7589710000    -0.9867630000    -1.2994200000 
 H        2.9946400000    -1.6180740000     1.1151500000 
 H        2.6852650000    -1.9761560000    -0.5751880000 
*
