! RI PBE def2-SVP def2-SVP/J NBO PAL2
% maxcore 2000
% output
    # printlevel mini
    print[ P_Basis ] 0
    print[ P_SCFInfo ] 1
    print[ P_SCFIterInfo ] 1
    print[ P_OrbEn ] 0
    print[ P_Cartesian ] 0
end
*xyz 0 1
 C        0.9916990000     0.1670740000     0.1204770000 
 C        2.4644140000     0.1134220000    -0.0526850000 
 C        3.2520710000    -0.9502720000    -0.2102230000 
 C        2.9493810000    -2.3975190000    -0.2662340000 
 O        4.5811790000    -0.6589510000    -0.3447110000 
 C        4.7260200000     0.7662660000    -0.2737730000 
 C        3.3216400000     1.3498840000    -0.0729010000 
 H        0.5418800000    -0.8270810000     0.1095310000 
 H        0.5166020000     0.7549660000    -0.6736260000 
 H        0.7174660000     0.6449020000     1.0683320000 
 H        1.8818010000    -2.5817230000    -0.1549030000 
 H        3.4821860000    -2.9297790000     0.5268420000 
 H        3.2812710000    -2.8202540000    -1.2187510000 
 H        5.1942700000     1.1032890000    -1.2016230000 
 H        5.4008660000     0.9948880000     0.5544540000 
 H        3.0358640000     2.0317220000    -0.8822640000 
 H        3.2381990000     1.9195650000     0.8599580000 
*
