! RI PBE def2-SVP def2-SVP/J NBO PAL2
% maxcore 2000
% output
    # printlevel mini
    print[ P_Basis ] 0
    print[ P_SCFInfo ] 1
    print[ P_SCFIterInfo ] 1
    print[ P_OrbEn ] 0
    print[ P_Cartesian ] 0
end
*xyz 0 1
 C        1.0667500000    -0.0379750000     0.0916480000 
 C        2.5516340000    -0.0560180000     0.0170030000 
 C        3.3433060000    -1.1271220000    -0.0429180000 
 C        4.7986380000    -0.7695300000    -0.0124490000 
 O        5.4056180000    -1.1451200000     1.2194940000 
 C        4.7866960000     0.7486320000    -0.2672080000 
 C        3.3547590000     1.2165770000     0.0224890000 
 H        0.6494440000    -1.0456990000     0.1029740000 
 H        0.6402790000     0.5019080000    -0.7601590000 
 H        0.7279540000     0.4858300000     0.9918550000 
 H        3.0001010000    -2.1560610000    -0.0336380000 
 H        5.3866500000    -1.2960090000    -0.7685550000 
 H        4.7981710000    -0.9015170000     1.9244550000 
 H        5.0322790000     0.9416320000    -1.3141680000 
 H        5.5448540000     1.2439360000     0.3412380000 
 H        2.9902890000     1.9267980000    -0.7266610000 
 H        3.2550770000     1.7252180000     0.9896910000 
*
