! RI PBE def2-SVP def2-SVP/J NBO PAL2
% maxcore 2000
% output
    # printlevel mini
    print[ P_Basis ] 0
    print[ P_SCFInfo ] 1
    print[ P_SCFIterInfo ] 1
    print[ P_OrbEn ] 0
    print[ P_Cartesian ] 0
end
*xyz 0 1
 C        0.9937940000     0.1423240000     0.0710390000 
 C        2.4770320000     0.0744340000    -0.0011080000 
 C        3.2576120000    -1.0112020000    -0.0861650000 
 C        4.7050770000    -0.6033220000    -0.0669430000 
 O        5.5321500000    -1.1752550000    -1.0574070000 
 C        4.6272360000     0.9012470000    -0.0558740000 
 C        3.3460510000     1.2704440000     0.0168580000 
 H        0.5444650000    -0.8486770000    -0.0011140000 
 H        0.5914400000     0.7629950000    -0.7360720000 
 H        0.6671590000     0.5980940000     1.0111160000 
 H        2.9357190000    -2.0438440000    -0.1214200000 
 H        5.1417780000    -0.9238490000     0.8910220000 
 H        5.1630330000    -0.9340950000    -1.9121740000 
 H        5.5006300000     1.5390160000    -0.0714620000 
 H        2.9717450000     2.2854810000     0.0830930000 
*
