! RI PBE def2-SVP def2-SVP/J NBO PAL2
% maxcore 2000
% output
    # printlevel mini
    print[ P_Basis ] 0
    print[ P_SCFInfo ] 1
    print[ P_SCFIterInfo ] 1
    print[ P_OrbEn ] 0
    print[ P_Cartesian ] 0
end
*xyz 0 1
 C        0.8879950000    -0.1285560000    -0.0079170000 
 C        2.3792600000    -0.0701960000    -0.0165510000 
 C        3.0666980000     1.0720330000    -0.0300400000 
 C        4.5602850000     1.1162900000    -0.0385960000 
 O        5.2034700000    -0.1665780000    -0.0310120000 
 C        4.4612440000    -1.2838180000    -0.0174810000 
 C        3.1281150000    -1.3214820000    -0.0099620000 
 H        0.4463700000     0.8687110000    -0.0139460000 
 H        0.5263540000    -0.6615870000     0.8772650000 
 H        0.5167700000    -0.6764510000    -0.8799590000 
 H        2.5618410000     2.0331700000    -0.0354730000 
 H        4.9396500000     1.6639040000     0.8347880000 
 H        4.9300210000     1.6486900000    -0.9254170000 
 H        5.0893900000    -2.1671350000    -0.0133260000 
 H        2.6218380000    -2.2771960000     0.0009290000 
*
