! RI PBE def2-SVP def2-SVP/J NBO PAL2
% maxcore 2000
% output
    # printlevel mini
    print[ P_Basis ] 0
    print[ P_SCFInfo ] 1
    print[ P_SCFIterInfo ] 1
    print[ P_OrbEn ] 0
    print[ P_Cartesian ] 0
end
*xyz 0 1
 C        0.8347070000    -0.0504520000    -0.0850370000 
 C        2.3606380000    -0.0010390000    -0.0171750000 
 C        2.9366890000     0.1806270000    -1.4209480000 
 C        2.9391200000    -1.2629080000     0.6747110000 
 O        3.6406880000    -0.8442140000     1.8560610000 
 C        3.5322420000     0.5052100000     1.9175750000 
 C        2.8464220000     1.0672640000     0.9324560000 
 H        0.4982710000    -0.8790360000    -0.7164840000 
 H        0.4340540000     0.8741890000    -0.5090800000 
 H        0.4042730000    -0.1796550000     0.9102810000 
 H        2.6377990000    -0.6442020000    -2.0757660000 
 H        4.0277060000     0.2193310000    -1.3925670000 
 H        2.5771670000     1.1095150000    -1.8717320000 
 H        3.6487520000    -1.7936560000     0.0343170000 
 H        2.1544320000    -1.9600220000     0.9806820000 
 H        4.0223950000     0.9579060000     2.7690940000 
 H        2.6568540000     2.1242330000     0.8159220000 
*
