! RI PBE def2-SVP def2-SVP/J NBO PAL2
% maxcore 2000
% output
    # printlevel mini
    print[ P_Basis ] 0
    print[ P_SCFInfo ] 1
    print[ P_SCFIterInfo ] 1
    print[ P_OrbEn ] 0
    print[ P_Cartesian ] 0
end
*xyz 0 1
 C        0.7843150000    -0.2253610000    -0.9054930000 
 C        2.1699840000    -0.1254920000    -0.3187810000 
 C        2.2497400000    -0.1412710000     1.1929080000 
 C        1.6994110000    -1.4028700000     1.8360830000 
 O        2.3930300000    -2.5699220000     1.4496210000 
 C        3.3008800000    -0.7557800000    -1.0934540000 
 C        3.1570900000     0.7368220000    -1.0430640000 
 H        0.2962040000    -1.1700980000    -0.6488090000 
 H        0.8184090000    -0.1604650000    -1.9953660000 
 H        0.1466910000     0.5865940000    -0.5422720000 
 H        1.6961500000     0.7187590000     1.5906690000 
 H        3.2939470000    -0.0174020000     1.4987930000 
 H        0.6256470000    -1.5004570000     1.6200430000 
 H        1.7998020000    -1.3359850000     2.9220980000 
 H        2.4444920000    -2.5704770000     0.4896420000 
 H        3.0646500000    -1.2546120000    -2.0265490000 
 H        4.1219740000    -1.1983570000    -0.5416020000 
 H        2.8245400000     1.2443060000    -1.9407540000 
 H        3.8758440000     1.2935670000    -0.4533030000 
*
