! RI PBE def2-SVP def2-SVP/J NBO PAL2
% maxcore 2000
% output
    # printlevel mini
    print[ P_Basis ] 0
    print[ P_SCFInfo ] 1
    print[ P_SCFIterInfo ] 1
    print[ P_OrbEn ] 0
    print[ P_Cartesian ] 0
end
*xyz 0 1
 C        0.8715570000    -0.0537400000    -0.3073380000 
 C        2.3903240000    -0.0483810000    -0.1163360000 
 C        2.8568500000     1.1653330000     0.6321480000 
 C        3.5133600000     1.1012450000     1.7826860000 
 O        3.8705720000    -0.0515960000     2.4140780000 
 C        3.5225340000    -1.2026700000     1.7743920000 
 C        2.8665220000    -1.2636990000     0.6234040000 
 H        0.5463970000     0.8314390000    -0.8607980000 
 H        0.3632980000    -0.0592420000     0.6594420000 
 H        0.5534400000    -0.9374760000    -0.8671620000 
 H        2.8366740000    -0.0429810000    -1.1224040000 
 H        2.6367590000     2.1486090000     0.2315850000 
 H        3.8422990000     1.9678050000     2.3411440000 
 H        3.8583790000    -2.0705810000     2.3266060000 
 H        2.6542560000    -2.2457860000     0.2157650000 
*
