! RI PBE def2-SVP def2-SVP/J NBO PAL2
% maxcore 2000
% output
    # printlevel mini
    print[ P_Basis ] 0
    print[ P_SCFInfo ] 1
    print[ P_SCFIterInfo ] 1
    print[ P_OrbEn ] 0
    print[ P_Cartesian ] 0
end
*xyz 0 1
 C        1.0036370000     0.0309300000    -0.0146890000 
 C        2.5254710000    -0.0207440000     0.1041910000 
 C        3.0420720000    -1.3066770000     0.7774080000 
 C        3.4441260000    -0.9272470000     2.2153360000 
 O        4.6338360000    -1.5485170000     2.6654650000 
 C        3.5193750000     0.5719710000     2.1602560000 
 C        3.0497320000     1.0542890000     1.0161550000 
 H        0.6382060000    -0.7549180000    -0.6805780000 
 H        0.6692950000     0.9914450000    -0.4152860000 
 H        0.5329090000    -0.1041730000     0.9629610000 
 H        2.9428930000     0.0912700000    -0.9034030000 
 H        3.9402980000    -1.6651570000     0.2662740000 
 H        2.3132900000    -2.1189700000     0.7464150000 
 H        2.6905580000    -1.2478500000     2.9430330000 
 H        5.3548080000    -1.2310040000     2.1130010000 
 H        3.8994140000     1.1565760000     2.9904830000 
 H        2.9849720000     2.1078760000     0.7638770000 
*
