! RI PBE def2-SVP def2-SVP/J NBO PAL2
% maxcore 2000
% output
    # printlevel mini
    print[ P_Basis ] 0
    print[ P_SCFInfo ] 1
    print[ P_SCFIterInfo ] 1
    print[ P_OrbEn ] 0
    print[ P_Cartesian ] 0
end
*xyz 0 1
 C        0.9681090000     0.0670210000    -0.1746350000 
 C        2.4704200000    -0.0216500000     0.0804410000 
 C        3.2219360000     1.2289140000    -0.3811600000 
 C        3.5333200000     1.1441730000    -1.8608150000 
 O        4.3570520000     0.0283370000    -2.1667660000 
 C        3.9754880000    -1.1198370000    -1.5658280000 
 C        3.0968420000    -1.2183660000    -0.5700890000 
 H        0.5229500000     0.8855370000     0.3985880000 
 H        0.4658170000    -0.8596880000     0.1134230000 
 H        0.7570610000     0.2356300000    -1.2338620000 
 H        2.6112940000    -0.1189700000     1.1642880000 
 H        4.1638290000     1.3215880000     0.1677590000 
 H        2.6378810000     2.1327940000    -0.1837990000 
 H        4.0778360000     2.0215790000    -2.2116640000 
 H        2.6069440000     1.0569160000    -2.4435270000 
 H        4.4835280000    -1.9771730000    -1.9928530000 
 H        2.8624840000    -2.2084930000    -0.1964110000 
*
