! RI PBE def2-SVP def2-SVP/J NBO PAL2
% maxcore 2000
% output
    # printlevel mini
    print[ P_Basis ] 0
    print[ P_SCFInfo ] 1
    print[ P_SCFIterInfo ] 1
    print[ P_OrbEn ] 0
    print[ P_Cartesian ] 0
end
*xyz 0 1
 C        0.9260060000     0.1516310000     0.0779590000 
 C        2.4298710000     0.0811110000    -0.1332110000 
 C        2.9398150000    -1.3139500000    -0.4902780000 
 C        2.6680830000    -1.6229740000    -1.9514530000 
 O        3.1792620000    -0.5892380000    -2.7687200000 
 C        2.5999300000     0.6312530000    -2.4220910000 
 O        2.8797940000     1.0168180000    -1.1117960000 
 H        0.6467210000    -0.4474020000     0.9481560000 
 H        0.3585070000    -0.2231550000    -0.7760280000 
 H        0.6237760000     1.1842160000     0.2618860000 
 H        2.9161110000     0.4098670000     0.7890490000 
 H        2.4763810000    -2.0664980000     0.1543780000 
 H        4.0198690000    -1.3477300000    -0.3249570000 
 H        1.5894370000    -1.7405390000    -2.1387470000 
 H        3.1618340000    -2.5450410000    -2.2619310000 
 H        1.5095700000     0.5772450000    -2.5862440000 
 H        3.0339330000     1.3919960000    -3.0704820000 
*
