! RI PBE def2-SVP def2-SVP/J NBO PAL2
% maxcore 2000
% output
    # printlevel mini
    print[ P_Basis ] 0
    print[ P_SCFInfo ] 1
    print[ P_SCFIterInfo ] 1
    print[ P_OrbEn ] 0
    print[ P_Cartesian ] 0
end
*xyz 0 1
 C        1.0153030000    -0.1822500000     0.0227700000 
 C        2.4951440000    -0.0647150000     0.0383570000 
 C        3.2017800000     1.0520340000    -0.1401240000 
 C        4.6847360000     1.0624620000     0.0307600000 
 O        5.1405530000    -0.1752550000     0.5505170000 
 C        4.4790010000    -1.2342540000    -0.0462230000 
 O        3.1046950000    -1.2604430000     0.2716000000 
 H        0.5513830000     0.7890930000    -0.1446140000 
 H        0.6613050000    -0.5818780000     0.9772510000 
 H        0.6916930000    -0.8745480000    -0.7591810000 
 H        2.6912430000     1.9806540000    -0.3606990000 
 H        4.9862460000     1.8202850000     0.7595290000 
 H        5.2060330000     1.2910740000    -0.9122130000 
 H        4.9067040000    -2.1581950000     0.3392960000 
 H        4.5733710000    -1.1832750000    -1.1424260000 
*
