! RI PBE def2-SVP def2-SVP/J NBO PAL2
% maxcore 2000
% output
    # printlevel mini
    print[ P_Basis ] 0
    print[ P_SCFInfo ] 1
    print[ P_SCFIterInfo ] 1
    print[ P_OrbEn ] 0
    print[ P_Cartesian ] 0
end
*xyz 0 1
 C        0.8988960000     0.1988600000     0.0968610000 
 C        2.3504940000     0.0025250000    -0.0590460000 
 C        3.1211070000    -1.0740720000    -0.1522820000 
 C        2.8458410000    -2.5211500000    -0.1386910000 
 O        4.4474570000    -0.7016930000    -0.2887790000 
 C        4.4592030000     0.7124650000    -0.2748370000 
 O        3.1222210000     1.1497510000    -0.1284380000 
 H        0.3860870000    -0.7618010000     0.1408270000 
 H        0.4892110000     0.7722600000    -0.7403360000 
 H        0.6750060000     0.7533380000     1.0133520000 
 H        1.7774900000    -2.7056900000    -0.0275730000 
 H        3.3698840000    -3.0116420000     0.6873380000 
 H        3.1842260000    -2.9927880000    -1.0663640000 
 H        4.8716620000     1.0895320000    -1.2197890000 
 H        5.0614040000     1.0703060000     0.5704660000 
*
