! RI PBE def2-SVP def2-SVP/J NBO PAL2
% maxcore 2000
% output
    # printlevel mini
    print[ P_Basis ] 0
    print[ P_SCFInfo ] 1
    print[ P_SCFIterInfo ] 1
    print[ P_OrbEn ] 0
    print[ P_Cartesian ] 0
end
*xyz 0 1
 C        1.1195560000     0.1434290000    -0.0556460000 
 C        2.5902330000     0.0030200000    -0.1312400000 
 C        3.3679890000    -1.0840810000    -0.1401230000 
 C        4.8001500000    -0.6550820000    -0.1023840000 
 O        5.4262670000    -0.9170660000     1.1458590000 
 C        4.6478360000     0.8375140000    -0.4218230000 
 O        3.2720350000     1.1746770000    -0.1955650000 
 H        0.6422640000    -0.8323440000     0.0212700000 
 H        0.7401790000     0.6580160000    -0.9422680000 
 H        0.8413690000     0.7463160000     0.8128740000 
 H        3.0263230000    -2.1062580000    -0.0828830000 
 H        5.4374770000    -1.1469060000    -0.8404350000 
 H        4.7646430000    -0.7773560000     1.8304960000 
 H        4.8714940000     1.0430600000    -1.4726640000 
 H        5.2746030000     1.4605600000     0.2167210000 
*
