! RI PBE def2-SVP def2-SVP/J NBO PAL2
% maxcore 2000
% output
    # printlevel mini
    print[ P_Basis ] 0
    print[ P_SCFInfo ] 1
    print[ P_SCFIterInfo ] 1
    print[ P_OrbEn ] 0
    print[ P_Cartesian ] 0
end
*xyz 0 1
 C        1.0028680000    -0.4238540000    -1.2552750000 
 C        2.2488570000    -0.4270740000    -0.4182820000 
 C        2.1172670000    -0.0341460000     1.0336440000 
 C        1.4245350000    -1.0543740000     1.9238940000 
 O        0.0494400000    -1.2341270000     1.6504150000 
 C        3.3849890000    -1.2600930000    -0.8112710000 
 O        3.3931120000     0.1353620000    -1.0648080000 
 H        0.2683610000    -1.1234060000    -0.8537730000 
 H        1.2376110000    -0.6921090000    -2.2862270000 
 H        0.5539080000     0.5738680000    -1.2564040000 
 H        1.5934780000     0.9283790000     1.1034150000 
 H        3.1252560000     0.1352340000     1.4248540000 
 H        1.5743520000    -0.7713530000     2.9744400000 
 H        1.8814340000    -2.0382360000     1.7879170000 
 H       -0.4053880000    -0.4075300000     1.8315050000 
 H        3.3059130000    -1.8938820000    -1.6917260000 
 H        4.0937960000    -1.5991480000    -0.0578180000 
*
