! RI PBE def2-SVP def2-SVP/J NBO PAL2
% maxcore 2000
% output
    # printlevel mini
    print[ P_Basis ] 0
    print[ P_SCFInfo ] 1
    print[ P_SCFIterInfo ] 1
    print[ P_OrbEn ] 0
    print[ P_Cartesian ] 0
end
*xyz 0 1
 C        1.0385270000    -0.0158550000     0.1153970000 
 C        2.5394430000     0.0230130000     0.2142400000 
 C        3.1329150000     1.2395200000     0.9114050000 
 C        4.4094970000     0.6887420000     1.5112330000 
 O        5.3380460000     1.3030470000     1.9548150000 
 C        4.2922680000    -0.8232310000     1.4215830000 
 O        2.9771930000    -1.0843450000     1.0043610000 
 H        0.6753100000     0.8056860000    -0.5058330000 
 H        0.5910830000     0.0717500000     1.1081110000 
 H        0.7094820000    -0.9562090000    -0.3302570000 
 H        2.9800590000    -0.0670090000    -0.7919490000 
 H        2.4850950000     1.5668080000     1.7329930000 
 H        3.3336150000     2.0975380000     0.2700630000 
 H        4.4824060000    -1.3016800000     2.3842230000 
 H        5.0388630000    -1.1891960000     0.6987250000 
*
