! RI PBE def2-SVP def2-SVP/J NBO PAL2
% maxcore 2000
% output
    # printlevel mini
    print[ P_Basis ] 0
    print[ P_SCFInfo ] 1
    print[ P_SCFIterInfo ] 1
    print[ P_OrbEn ] 0
    print[ P_Cartesian ] 0
end
*xyz 0 1
 C        0.8389350000     0.0096790000     0.0873730000 
 C        2.3450070000     0.0684050000     0.0734100000 
 C        2.9685550000     1.2138810000     0.8555330000 
 C        4.3673300000     0.6907400000     1.1195870000 
 O        5.1494960000     0.9818880000    -0.0254920000 
 C        4.1112960000    -0.8075970000     1.2977710000 
 O        2.8632160000    -1.1020450000     0.7017010000 
 H        0.4196250000     0.8862840000    -0.4122600000 
 H        0.4665340000    -0.0205660000     1.1143000000 
 H        0.4841470000    -0.8816620000    -0.4333010000 
 H        2.7062860000     0.1062410000    -0.9643800000 
 H        2.4330090000     1.3539030000     1.7994220000 
 H        2.9890640000     2.1590840000     0.3125460000 
 H        4.8231750000     1.1317260000     2.0144210000 
 H        5.9917230000     0.5272850000     0.0543310000 
 H        4.0705660000    -1.0824050000     2.3581590000 
 H        4.9078480000    -1.3957400000     0.8233580000 
*
