! RI PBE def2-SVP def2-SVP/J NBO PAL2
% maxcore 2000
% output
    # printlevel mini
    print[ P_Basis ] 0
    print[ P_SCFInfo ] 1
    print[ P_SCFIterInfo ] 1
    print[ P_OrbEn ] 0
    print[ P_Cartesian ] 0
end
*xyz 0 1
 C        0.8229330000     0.0009800000     0.2401920000 
 C        2.3087860000     0.1240500000    -0.0670980000 
 C        3.0210500000     1.1410600000     0.8399990000 
 O        3.5516650000     0.0979530000     1.6667420000 
 C        3.1525210000    -0.9013920000     0.7241220000 
 C        2.5411970000     0.1731000000    -1.5387870000 
 C        3.0576940000     1.1791460000    -2.2300550000 
 H        0.6616970000    -0.0939540000     1.3169760000 
 H        0.3955720000    -0.8801490000    -0.2468000000 
 H        0.2792740000     0.8794750000    -0.1160690000 
 H        2.3765420000     1.8244080000     1.4013150000 
 H        3.8216480000     1.7096370000     0.3547860000 
 H        2.6041340000    -1.7225370000     1.1971430000 
 H        4.0098430000    -1.3001460000     0.1694870000 
 H        2.2217010000    -0.7196880000    -2.0766400000 
 H        3.3849770000     2.0984670000    -1.7561520000 
 H        3.1699650000     1.1206880000    -3.3062610000 
*
