! RI PBE def2-SVP def2-SVP/J NBO PAL2
% maxcore 2000
% output
    # printlevel mini
    print[ P_Basis ] 0
    print[ P_SCFInfo ] 1
    print[ P_SCFIterInfo ] 1
    print[ P_OrbEn ] 0
    print[ P_Cartesian ] 0
end
*xyz 0 1
 C        0.9528450000     0.0970040000     0.0517600000 
 C        2.4517820000     0.0124080000    -0.0160480000 
 C        3.1352450000    -0.7492630000    -1.1094080000 
 O        2.3116690000    -1.3491290000    -2.0596960000 
 C        3.2738210000     0.7512130000    -1.0509100000 
 C        2.5820120000     1.5864990000    -2.0947430000 
 C        4.6029520000     1.2992670000    -0.6007730000 
 H        0.5541440000    -0.7070190000     0.6756940000 
 H        0.4955940000    -0.0024200000    -0.9319110000 
 H        0.6308590000     1.0466290000     0.4877850000 
 H        2.9315290000    -0.0688160000     0.9556530000 
 H        4.0105320000    -1.3395520000    -0.8398770000 
 H        2.7592510000    -1.3201910000    -2.9094230000 
 H        1.6847600000     1.1042210000    -2.4813570000 
 H        3.2521570000     1.7738640000    -2.9403060000 
 H        2.2940750000     2.5599420000    -1.6864710000 
 H        5.0838910000     0.6360440000     0.1226060000 
 H        4.4828260000     2.2771880000    -0.1234350000 
 H        5.2868440000     1.4243110000    -1.4467390000 
*
