! RI PBE def2-SVP def2-SVP/J NBO PAL2
% maxcore 2000
% output
    # printlevel mini
    print[ P_Basis ] 0
    print[ P_SCFInfo ] 1
    print[ P_SCFIterInfo ] 1
    print[ P_OrbEn ] 0
    print[ P_Cartesian ] 0
end
*xyz 0 1
 C        1.3806100000    -0.2041710000     0.3778460000 
 C        2.7699000000    -0.1178470000    -0.1868490000 
 C        3.0481130000    -0.4994050000    -1.5934670000 
 O        1.9837840000    -0.9703930000    -2.3493300000 
 C        3.1065810000     0.9637070000    -1.1852890000 
 C        4.3870280000     1.6897790000    -1.1873830000 
 C        5.4674440000     1.4023540000    -0.4683270000 
 H        1.1833800000    -1.2014080000     0.7794280000 
 H        0.6320810000    -0.0056980000    -0.3898850000 
 H        1.2471420000     0.5184030000     1.1866250000 
 H        3.5617800000    -0.3573580000     0.5161960000 
 H        4.0120120000    -0.9605000000    -1.8032770000 
 H        2.1352220000    -0.7312520000    -3.2674920000 
 H        2.2470210000     1.5326020000    -1.5270990000 
 H        4.4411550000     2.5273120000    -1.8801890000 
 H        5.4888150000     0.5901920000     0.2507460000 
 H        6.3774310000     1.9801740000    -0.5740660000 
*
