! RI PBE def2-SVP def2-SVP/J NBO PAL2
% maxcore 2000
% output
    # printlevel mini
    print[ P_Basis ] 0
    print[ P_SCFInfo ] 1
    print[ P_SCFIterInfo ] 1
    print[ P_OrbEn ] 0
    print[ P_Cartesian ] 0
end
*xyz 0 1
 C        0.9352760000     0.0573480000    -0.0052660000 
 C        2.4318920000    -0.0225960000    -0.0794030000 
 C        3.1112330000    -0.7584370000    -1.1742490000 
 O        2.3061020000    -1.3831960000    -2.1142920000 
 C        3.1746590000     0.7573960000    -1.1537240000 
 C        4.4003530000     1.4286670000    -0.8631310000 
 C        5.4396260000     1.9789820000    -0.6112220000 
 H        0.5304070000    -0.7966080000     0.5435680000 
 H        0.4912490000     0.0491880000    -1.0010220000 
 H        0.6216010000     0.9689380000     0.5086200000 
 H        2.9453120000    -0.0588540000     0.8755560000 
 H        4.0351970000    -1.2772890000    -0.9298280000 
 H        2.7707660000    -1.3899380000    -2.9555430000 
 H        2.5312730000     1.2376560000    -1.8850830000 
 H        6.3560330000     2.4714540000    -0.3884820000 
*
