! RI PBE def2-SVP def2-SVP/J NBO PAL2
% maxcore 2000
% output
    # printlevel mini
    print[ P_Basis ] 0
    print[ P_SCFInfo ] 1
    print[ P_SCFIterInfo ] 1
    print[ P_OrbEn ] 0
    print[ P_Cartesian ] 0
end
*xyz 0 1
 C        0.8163410000     0.0135850000     0.1338770000 
 C        2.3209350000    -0.0581510000     0.0835790000 
 C        3.1466870000     0.9294470000     0.9131350000 
 O        3.9194270000    -0.1316430000     1.4949030000 
 C        3.0315470000    -1.1226890000     0.9493550000 
 C        3.7025680000    -2.2187150000     0.2805530000 
 C        4.2362520000    -3.1316980000    -0.2878570000 
 H        0.4497340000     0.9029080000    -0.3852010000 
 H        0.4574900000     0.0565220000     1.1659290000 
 H        0.3639900000    -0.8581800000    -0.3456830000 
 H        2.6776430000    -0.1096720000    -0.9463530000 
 H        2.5650990000     1.4657670000     1.6733710000 
 H        3.7744880000     1.6394720000     0.3690080000 
 H        2.3748680000    -1.5248020000     1.7339170000 
 H        4.7186330000    -3.9386510000    -0.7870430000 
*
