! RI PBE def2-SVP def2-SVP/J NBO PAL2
% maxcore 2000
% output
    # printlevel mini
    print[ P_Basis ] 0
    print[ P_SCFInfo ] 1
    print[ P_SCFIterInfo ] 1
    print[ P_OrbEn ] 0
    print[ P_Cartesian ] 0
end
*xyz 0 1
 C        0.8326830000     0.0451820000     0.2328230000 
 C        2.3323830000    -0.0815910000     0.1242000000 
 C        3.2013280000     0.9275830000     0.8848810000 
 O        3.9168730000    -0.1201450000     1.5578350000 
 C        3.0450010000    -1.1168710000     1.0064900000 
 C        3.8131350000    -2.2289710000     0.3321750000 
 O        2.9494790000    -3.1789280000    -0.2546660000 
 H        0.4706560000     0.9274670000    -0.3019530000 
 H        0.5208120000     0.1371550000     1.2772000000 
 H        0.3344760000    -0.8287760000    -0.1939800000 
 H        2.6332810000    -0.1845690000    -0.9213180000 
 H        2.6445390000     1.5525000000     1.5937100000 
 H        3.8682340000     1.5615780000     0.2936030000 
 H        2.3879560000    -1.5393810000     1.7844860000 
 H        4.4999710000    -2.6881090000     1.0561570000 
 H        4.4190100000    -1.8153630000    -0.4776770000 
 H        2.4905130000    -3.6481610000     0.4467350000 
*
