! RI PBE def2-SVP def2-SVP/J NBO PAL2
% maxcore 2000
% output
    # printlevel mini
    print[ P_Basis ] 0
    print[ P_SCFInfo ] 1
    print[ P_SCFIterInfo ] 1
    print[ P_OrbEn ] 0
    print[ P_Cartesian ] 0
end
*xyz 0 1
 C        0.9219150000     0.2045020000     0.0928820000 
 C        2.4227940000     0.0955860000     0.0112810000 
 C        3.2781630000     1.0313790000     0.8952220000 
 O        4.0009840000    -0.0642680000     1.4607850000 
 C        3.1270940000    -1.0062550000     0.8349480000 
 C        2.9342130000     0.0996560000    -1.4019210000 
 O        2.2487380000     0.1797700000    -2.3827220000 
 H        0.5908050000     0.1981390000     1.1332480000 
 H        0.4431380000    -0.6252930000    -0.4308770000 
 H        0.5730270000     1.1253170000    -0.3788060000 
 H        2.6865290000     1.5696450000     1.6443530000 
 H        3.9381810000     1.7367110000     0.3795840000 
 H        2.4593440000    -1.4945640000     1.5537250000 
 H        3.6782120000    -1.7696490000     0.2759230000 
 H        4.0419620000     0.0199150000    -1.4850140000 
*
