! RI PBE def2-SVP def2-SVP/J NBO PAL2
% maxcore 2000
% output
    # printlevel mini
    print[ P_Basis ] 0
    print[ P_SCFInfo ] 1
    print[ P_SCFIterInfo ] 1
    print[ P_OrbEn ] 0
    print[ P_Cartesian ] 0
end
*xyz 0 1
 C        0.9207550000     0.3226550000    -0.0912970000 
 C        2.4187200000     0.2171620000    -0.0961060000 
 C        3.1177730000    -0.7170250000    -1.0247740000 
 O        2.3242920000    -1.4888960000    -1.8682840000 
 C        3.2246330000     0.7666780000    -1.2445910000 
 C        4.5170140000     1.4844140000    -0.9961620000 
 O        4.3549540000     2.7729890000    -0.4343250000 
 H        0.4769240000    -0.4233210000     0.5729060000 
 H        0.5129820000     0.1570210000    -1.0890810000 
 H        0.6048800000     1.3106580000     0.2530760000 
 H        2.8879520000     0.3278040000     0.8772240000 
 H        4.0026190000    -1.2260660000    -0.6449100000 
 H        2.7887710000    -1.6015300000    -2.7015730000 
 H        2.6311140000     1.1325950000    -2.0804330000 
 H        5.1025670000     1.5396010000    -1.9255250000 
 H        5.1157900000     0.9257530000    -0.2716570000 
 H        3.7816690000     3.2830570000    -1.0119770000 
*
