! RI PBE def2-SVP def2-SVP/J NBO PAL2
% maxcore 2000
% output
    # printlevel mini
    print[ P_Basis ] 0
    print[ P_SCFInfo ] 1
    print[ P_SCFIterInfo ] 1
    print[ P_OrbEn ] 0
    print[ P_Cartesian ] 0
end
*xyz 0 1
 C        1.0145980000     0.1830550000     0.1337990000 
 C        2.5104170000     0.0864290000     0.0531950000 
 C        3.1807840000    -0.6800820000    -1.0122010000 
 O        2.3825160000    -1.3258260000    -1.9405580000 
 C        3.2456410000     0.8422040000    -1.0468960000 
 C        4.5158790000     1.5049890000    -0.7454340000 
 O        4.9105130000     2.5162510000    -1.2657350000 
 H        0.6100150000    -0.6384000000     0.7300160000 
 H        0.5650490000     0.1263520000    -0.8574030000 
 H        0.7122060000     1.1226540000     0.6010000000 
 H        3.0257770000     0.0765530000     1.0096570000 
 H        4.1024860000    -1.1976020000    -0.7523680000 
 H        2.8385560000    -1.3336680000    -2.7866280000 
 H        2.6274430000     1.3230310000    -1.7967600000 
 H        5.1319210000     0.9925500000     0.0306340000 
*
