! RI PBE def2-SVP def2-SVP/J NBO PAL2
% maxcore 2000
% output
    # printlevel mini
    print[ P_Basis ] 0
    print[ P_SCFInfo ] 1
    print[ P_SCFIterInfo ] 1
    print[ P_OrbEn ] 0
    print[ P_Cartesian ] 0
end
*xyz 0 1
 C        1.0517460000     0.0638060000     0.2776550000 
 C        2.5335420000    -0.1171710000    -0.0138850000 
 C        2.9205750000    -1.5616650000    -0.3730160000 
 O        3.0511370000    -1.6220810000    -1.7873480000 
 C        3.4364010000    -0.3572970000    -2.2432310000 
 C        2.3158210000     0.5852310000    -2.5255080000 
 C        3.0630310000     0.6573340000    -1.2165120000 
 H        0.7661410000    -0.4792670000     1.1822580000 
 H        0.4344910000    -0.3125460000    -0.5412630000 
 H        0.8043760000     1.1175100000     0.4268740000 
 H        3.0990380000     0.1983250000     0.8680470000 
 H        2.1655530000    -2.2938700000    -0.0764470000 
 H        3.8744960000    -1.8365710000     0.0974880000 
 H        4.3621030000    -0.3332210000    -2.8082560000 
 H        1.3185830000     0.1637720000    -2.5406240000 
 H        2.4853250000     1.3887640000    -3.2328500000 
 H        3.6858500000     1.5249450000    -1.0385920000 
*
