! RI PBE def2-SVP def2-SVP/J NBO PAL2
% maxcore 2000
% output
    # printlevel mini
    print[ P_Basis ] 0
    print[ P_SCFInfo ] 1
    print[ P_SCFIterInfo ] 1
    print[ P_OrbEn ] 0
    print[ P_Cartesian ] 0
end
*xyz 0 1
 C        1.1814990000     0.0829450000    -0.3160060000 
 C        2.6666750000     0.0253030000     0.0044860000 
 C        3.0597020000    -1.2218810000     0.8074650000 
 O        4.0277620000    -0.8108360000     1.7817160000 
 C        3.9344670000     0.5451130000     1.8476940000 
 C        3.1794800000     1.1176780000     0.9162980000 
 C        2.9317910000     2.5655020000     0.7049420000 
 H        0.8763840000    -0.7751140000    -0.9212790000 
 H        0.9306170000     0.9852970000    -0.8783630000 
 H        0.5869180000     0.0785420000     0.6018270000 
 H        3.2231200000     0.0651330000    -0.9442270000 
 H        3.4979200000    -2.0207960000     0.2083540000 
 H        2.1884800000    -1.6179800000     1.3445730000 
 H        4.5081470000     1.0026400000     2.6431850000 
 H        3.4459960000     3.1686940000     1.4555330000 
 H        1.8653160000     2.8087040000     0.7562520000 
 H        3.2815470000     2.8888450000    -0.2826500000 
*
