! RI PBE def2-SVP def2-SVP/J NBO PAL2
% maxcore 2000
% output
    # printlevel mini
    print[ P_Basis ] 0
    print[ P_SCFInfo ] 1
    print[ P_SCFIterInfo ] 1
    print[ P_OrbEn ] 0
    print[ P_Cartesian ] 0
end
*xyz 0 1
 C        1.0320340000    -0.0325300000    -0.0015020000 
 C        2.5443090000    -0.0767980000     0.0661040000 
 C        3.1879450000     1.0096900000     0.9230230000 
 O        4.4824920000     0.5301050000     1.2164890000 
 C        4.3676520000    -0.8613290000     1.4454870000 
 C        3.1421490000    -1.3137040000     0.6892770000 
 C        2.6720840000    -2.5506150000     0.6355180000 
 H        0.6866900000     0.9162690000    -0.4200750000 
 H        0.5949560000    -0.1475840000     0.9936040000 
 H        0.6381900000    -0.8307810000    -0.6340180000 
 H        2.9582850000     0.0202790000    -0.9465610000 
 H        2.6047940000     1.1581400000     1.8465680000 
 H        3.2890220000     1.9713210000     0.4172140000 
 H        4.2534420000    -1.0679750000     2.5197870000 
 H        5.2872160000    -1.3425370000     1.1025780000 
 H        3.1774870000    -3.3717340000     1.1328090000 
 H        1.7660630000    -2.7927070000     0.0918860000 
*
