! RI PBE def2-SVP def2-SVP/J NBO PAL2
% maxcore 2000
% output
    # printlevel mini
    print[ P_Basis ] 0
    print[ P_SCFInfo ] 1
    print[ P_SCFIterInfo ] 1
    print[ P_OrbEn ] 0
    print[ P_Cartesian ] 0
end
*xyz 0 1
 C        1.1137810000     0.0651520000    -0.1619500000 
 C        2.6045800000     0.0727950000     0.0953380000 
 C        3.0954120000     1.1430750000     1.0531610000 
 O        4.3411240000     0.6886550000     1.5685390000 
 C        4.4838250000    -0.6959760000     1.3191620000 
 C        3.1449140000    -1.1843270000     0.7736470000 
 O        3.2225760000    -2.3295980000    -0.0350370000 
 H        0.7861740000     0.9777670000    -0.6659380000 
 H        0.5592640000    -0.0165500000     0.7775340000 
 H        0.8360930000    -0.7839150000    -0.7902140000 
 H        3.1430810000     0.1831270000    -0.8568680000 
 H        2.3796670000     1.2785150000     1.8774270000 
 H        3.2486580000     2.1145870000     0.5762710000 
 H        4.7830820000    -1.2056360000     2.2390700000 
 H        5.2704820000    -0.8654960000     0.5674260000 
 H        2.4793600000    -1.4606460000     1.5983970000 
 H        3.8225480000    -2.1435180000    -0.7640440000 
*
