! RI PBE def2-SVP def2-SVP/J NBO PAL2
% maxcore 2000
% output
    # printlevel mini
    print[ P_Basis ] 0
    print[ P_SCFInfo ] 1
    print[ P_SCFIterInfo ] 1
    print[ P_OrbEn ] 0
    print[ P_Cartesian ] 0
end
*xyz 0 1
 C        0.9974330000     0.0334110000     0.2459490000 
 C        2.3003170000     0.1040330000     0.0075810000 
 C        3.2122250000     1.2858890000    -0.0282500000 
 O        4.5178150000     0.8006600000    -0.3319250000 
 C        4.5353700000    -0.5966600000    -0.4965080000 
 C        3.1253660000    -1.0980390000    -0.2875610000 
 O        2.7554090000    -2.2405120000    -0.3496590000 
 H        0.3914650000     0.9064970000     0.4616030000 
 H        0.5085330000    -0.9351250000     0.2264360000 
 H        3.2429760000     1.8091820000     0.9342840000 
 H        2.9151810000     2.0096990000    -0.7957750000 
 H        5.2081280000    -1.0677960000     0.2304510000 
 H        4.8803810000    -0.8678180000    -1.5017260000 
*
