! RI PBE def2-SVP def2-SVP/J NBO PAL2
% maxcore 2000
% output
    # printlevel mini
    print[ P_Basis ] 0
    print[ P_SCFInfo ] 1
    print[ P_SCFIterInfo ] 1
    print[ P_OrbEn ] 0
    print[ P_Cartesian ] 0
end
*xyz 0 1
 C        0.9889590000    -0.0476800000     0.3118480000 
 C        2.4474190000    -0.0103640000     0.0330620000 
 C        3.2588960000    -1.0169220000    -0.2905900000 
 O        4.5579330000    -0.6914870000    -0.5015280000 
 C        4.6796390000     0.6868290000    -0.1224400000 
 C        3.2598220000     1.2550040000    -0.0481980000 
 O        2.8933660000     2.0638300000    -1.1565120000 
 H        0.5862800000    -1.0553540000     0.1929380000 
 H        0.4409320000     0.6187420000    -0.3607840000 
 H        0.7695410000     0.2824400000     1.3327010000 
 H        3.0289050000    -2.0670390000    -0.4200220000 
 H        5.2955770000     1.2048690000    -0.8581460000 
 H        5.1686620000     0.7205140000     0.8557240000 
 H        3.1423220000     1.9088970000     0.8193850000 
 H        2.7916270000     1.4822220000    -1.9168060000 
*
