! RI PBE def2-SVP def2-SVP/J NBO PAL2
% maxcore 2000
% output
    # printlevel mini
    print[ P_Basis ] 0
    print[ P_SCFInfo ] 1
    print[ P_SCFIterInfo ] 1
    print[ P_OrbEn ] 0
    print[ P_Cartesian ] 0
end
*xyz 0 1
 C        1.0340820000    -0.0811390000     0.1124550000 
 C        2.5182590000    -0.0801630000    -0.1577540000 
 C        2.8353880000     0.0110330000    -1.6337650000 
 O        3.1823630000     0.9819470000     0.5801180000 
 C        4.1694740000     0.0776220000     1.0854670000 
 C        3.3564630000    -1.1255130000     0.6062120000 
 O        3.9790550000    -2.0902200000    -0.1940500000 
 H        0.5721660000     0.8200270000    -0.2982760000 
 H        0.8365650000    -0.1078110000     1.1858600000 
 H        0.5630400000    -0.9500530000    -0.3546610000 
 H        2.4018870000     0.9283440000    -2.0388080000 
 H        2.4199100000    -0.8424540000    -2.1734110000 
 H        3.9117980000     0.0269520000    -1.8063350000 
 H        4.3259060000     0.1961400000     2.1616920000 
 H        5.1279130000     0.1709510000     0.5600760000 
 H        2.7761100000    -1.5901420000     1.4109550000 
 H        4.3329230000    -2.7824210000     0.3683130000 
*
