! RI PBE def2-SVP def2-SVP/J NBO PAL2
% maxcore 2000
% output
    # printlevel mini
    print[ P_Basis ] 0
    print[ P_SCFInfo ] 1
    print[ P_SCFIterInfo ] 1
    print[ P_OrbEn ] 0
    print[ P_Cartesian ] 0
end
*xyz 0 1
 C        1.1158360000     0.0523540000     0.2608500000 
 C        2.5889030000    -0.0475020000    -0.0643130000 
 C        2.8715640000    -0.0944200000    -1.5487520000 
 O        3.3591430000     0.9943990000     0.5984840000 
 C        4.1104300000     0.0783410000     1.4014960000 
 C        3.3589620000    -1.0774150000     0.7661620000 
 O        3.3581330000    -2.2629580000     0.8616010000 
 H        0.7014980000     0.9601550000    -0.1840990000 
 H        0.9522470000     0.0913420000     1.3391240000 
 H        0.5807070000    -0.8099420000    -0.1422250000 
 H        2.4877600000     0.8108120000    -2.0252000000 
 H        2.3824700000    -0.9605850000    -1.9992370000 
 H        3.9433800000    -0.1586740000    -1.7437890000 
 H        3.9431180000     0.2076050000     2.4766450000 
 H        5.1862500000     0.1036880000     1.1950520000 
*
