! RI PBE def2-SVP def2-SVP/J NBO PAL2
% maxcore 2000
% output
    # printlevel mini
    print[ P_Basis ] 0
    print[ P_SCFInfo ] 1
    print[ P_SCFIterInfo ] 1
    print[ P_OrbEn ] 0
    print[ P_Cartesian ] 0
end
*xyz 0 1
 C        1.0445460000     0.0177870000    -0.1591760000 
 C        2.1549130000     0.0935250000     0.8598520000 
 C        3.3571020000     1.0282210000     0.5962350000 
 O        3.4554900000     1.3559240000    -0.7677100000 
 C        4.3017580000    -0.1023230000     1.0612780000 
 C        3.1242040000    -1.1009850000     1.0082580000 
 O        3.0970140000    -1.9213600000    -0.1335210000 
 H        1.4366710000    -0.2163340000    -1.1473890000 
 H        0.5135380000     0.9708920000    -0.2189700000 
 H        0.3245460000    -0.7569210000     0.1153800000 
 H        1.7453310000     0.3293110000     1.8467980000 
 H        3.3769450000     1.9372440000     1.2108540000 
 H        4.2924600000     1.8050690000    -0.9099040000 
 H        4.6975200000     0.0492380000     2.0682020000 
 H        5.1242240000    -0.3245810000     0.3776180000 
 H        2.9788900000    -1.7018740000     1.9150610000 
 H        3.8155370000    -2.5551230000    -0.0661650000 
*
