! RI PBE def2-SVP def2-SVP/J NBO PAL2
% maxcore 2000
% output
    # printlevel mini
    print[ P_Basis ] 0
    print[ P_SCFInfo ] 1
    print[ P_SCFIterInfo ] 1
    print[ P_OrbEn ] 0
    print[ P_Cartesian ] 0
end
*xyz 0 1
 C        1.0235720000    -0.0209780000     0.3871160000 
 C        2.3183840000    -0.0362780000     0.1123660000 
 C        3.2134890000     1.1702600000     0.0445850000 
 O        4.5124990000     0.7001730000    -0.2770810000 
 C        4.5430780000    -0.6520170000    -0.4194190000 
 C        5.6624680000    -1.2981030000    -0.7210160000 
 C        3.1747490000    -1.2324330000    -0.1883920000 
 H        0.4984150000     0.9058260000     0.5909480000 
 H        0.4389460000    -0.9331310000     0.4189320000 
 H        3.2586080000     1.7039580000     0.9996810000 
 H        2.8937080000     1.8776250000    -0.7277150000 
 H        6.5939660000    -0.7678200000    -0.8646910000 
 H        5.6524200000    -2.3736160000    -0.8269350000 
 H        3.1836710000    -1.9432360000     0.6419920000 
 H        2.8216270000    -1.7717500000    -1.0711610000 
*
