! RI PBE def2-SVP def2-SVP/J NBO PAL2
% maxcore 2000
% output
    # printlevel mini
    print[ P_Basis ] 0
    print[ P_SCFInfo ] 1
    print[ P_SCFIterInfo ] 1
    print[ P_OrbEn ] 0
    print[ P_Cartesian ] 0
end
*xyz 0 1
 C        0.9291710000     0.0217520000     0.2134770000 
 C        2.2569580000     0.0203140000     0.0951610000 
 C        3.0619240000     1.2833980000    -0.0313800000 
 O        4.2951850000     1.1902850000     0.6460520000 
 C        5.1080310000     0.1607570000     0.1456990000 
 C        4.3831070000    -1.1349070000    -0.0099250000 
 C        3.0507110000    -1.1945020000     0.0121620000 
 H        0.3650220000     0.9458630000     0.2739700000 
 H        0.3666230000    -0.9049340000     0.2474240000 
 H        2.5318820000     2.1343100000     0.3983320000 
 H        3.2365450000     1.4940500000    -1.0997010000 
 H        5.9315060000     0.0485000000     0.8570560000 
 H        5.5588110000     0.4567720000    -0.8190720000 
 H        4.9835330000    -2.0317160000    -0.1253050000 
 H        2.5324010000    -2.1466510000    -0.0465400000 
*
