! RI PBE def2-SVP def2-SVP/J NBO PAL2
% maxcore 2000
% output
    # printlevel mini
    print[ P_Basis ] 0
    print[ P_SCFInfo ] 1
    print[ P_SCFIterInfo ] 1
    print[ P_OrbEn ] 0
    print[ P_Cartesian ] 0
end
*xyz 0 1
 C        1.0274420000    -0.0359130000    -0.1108840000 
 C        2.5180580000    -0.0866550000    -0.0526790000 
 C        3.2368010000     1.0111560000     0.1831140000 
 O        4.5902860000     1.0902740000     0.2211700000 
 C        5.2594720000    -0.0442230000    -0.3042160000 
 C        4.6523230000    -1.3364300000     0.1975930000 
 C        3.1937950000    -1.4144980000    -0.2311400000 
 H        0.6532300000     0.9784100000     0.0421500000 
 H        0.5765520000    -0.6816640000     0.6512190000 
 H        0.6546400000    -0.3865880000    -1.0802100000 
 H        2.7813170000     1.9765440000     0.3774920000 
 H        6.3033240000     0.0604260000    -0.0049680000 
 H        5.2062850000    -0.0044840000    -1.4010080000 
 H        4.7234600000    -1.3561260000     1.2894050000 
 H        5.2274000000    -2.1850250000    -0.1822080000 
 H        2.6650870000    -2.1731930000     0.3576510000 
 H        3.1145370000    -1.7431090000    -1.2759810000 
*
