! RI PBE def2-SVP def2-SVP/J NBO PAL2
% maxcore 2000
% output
    # printlevel mini
    print[ P_Basis ] 0
    print[ P_SCFInfo ] 1
    print[ P_SCFIterInfo ] 1
    print[ P_OrbEn ] 0
    print[ P_Cartesian ] 0
end
*xyz 0 1
 C        1.0418700000     0.0812200000     0.0402480000 
 C        2.5236090000     0.0747840000    -0.1170000000 
 C        3.2049320000     1.2053950000    -0.2675910000 
 O        4.5582910000     1.3063970000    -0.4186110000 
 C        5.2450460000     0.1336900000    -0.4108370000 
 C        4.6955020000    -1.0645770000    -0.2696050000 
 C        3.2218900000    -1.2538850000    -0.0995500000 
 H        0.6327570000     1.0926230000     0.0139550000 
 H        0.7477160000    -0.3814040000     0.9891890000 
 H        0.5621830000    -0.5017730000    -0.7541430000 
 H        2.7402470000     2.1834010000    -0.2856780000 
 H        6.3068100000     0.3021680000    -0.5355710000 
 H        5.3504540000    -1.9274090000    -0.2798430000 
 H        2.9990850000    -1.7833660000     0.8392660000 
 H        2.8149010000    -1.9028720000    -0.8898270000 
*
