! RI PBE def2-SVP def2-SVP/J NBO PAL2
% maxcore 2000
% output
    # printlevel mini
    print[ P_Basis ] 0
    print[ P_SCFInfo ] 1
    print[ P_SCFIterInfo ] 1
    print[ P_OrbEn ] 0
    print[ P_Cartesian ] 0
end
*xyz 0 1
 C        1.0304270000     0.0474400000     0.0812360000 
 C        2.4932740000     0.0833590000    -0.1579210000 
 C        3.3247690000    -0.9348650000    -0.3349550000 
 O        4.6345400000    -0.5777800000    -0.5362250000 
 C        4.6989740000     0.7974110000    -0.4924240000 
 C        5.8479650000     1.4370260000    -0.6561140000 
 C        3.3139430000     1.3400520000    -0.2431510000 
 H        0.6566220000    -0.9776740000     0.1021460000 
 H        0.4855540000     0.5891950000    -0.6993230000 
 H        0.7706640000     0.5205930000     1.0342880000 
 H        3.1412630000    -1.9994840000    -0.3469000000 
 H        6.7683960000     0.8959450000    -0.8289110000 
 H        5.8773140000     2.5168200000    -0.6182280000 
 H        2.9843040000     1.9988580000    -1.0546990000 
 H        3.2695010000     1.9302030000     0.6793710000 
*
