! RI PBE def2-SVP def2-SVP/J NBO PAL2
% maxcore 2000
% output
    # printlevel mini
    print[ P_Basis ] 0
    print[ P_SCFInfo ] 1
    print[ P_SCFIterInfo ] 1
    print[ P_OrbEn ] 0
    print[ P_Cartesian ] 0
end
*xyz 0 1
 C        0.8579470000     0.0020450000    -0.0543010000 
 C        2.3746020000    -0.0454500000     0.0843600000 
 C        3.0451390000    -0.0244990000    -1.2837010000 
 O        2.7387210000    -1.2586860000     0.7581330000 
 C        3.4203320000    -0.9868620000     1.9671530000 
 C        3.4862670000     0.5011120000     2.0517040000 
 C        2.8981600000     1.0314830000     0.9927790000 
 H        0.5110170000    -0.8546200000    -0.6364700000 
 H        0.5412090000     0.9154800000    -0.5641380000 
 H        0.3852210000    -0.0305380000     0.9287220000 
 H        2.7125810000    -0.8815280000    -1.8736700000 
 H        4.1298820000    -0.0756740000    -1.1761090000 
 H        2.7907980000     0.8880080000    -1.8289130000 
 H        4.4184020000    -1.4476240000     1.9483180000 
 H        2.8755170000    -1.4283270000     2.8139890000 
 H        3.9526700000     1.0337080000     2.8706000000 
 H        2.7881330000     2.0860830000     0.7737330000 
*
