! RI PBE def2-SVP def2-SVP/J NBO PAL2
% maxcore 2000
% output
    # printlevel mini
    print[ P_Basis ] 0
    print[ P_SCFInfo ] 1
    print[ P_SCFIterInfo ] 1
    print[ P_OrbEn ] 0
    print[ P_Cartesian ] 0
end
*xyz 0 1
 C        0.8551310000    -0.0187770000     0.0751490000 
 C        2.3653350000    -0.0182620000    -0.0437210000 
 C        2.7455840000    -0.0322740000    -1.5167790000 
 O        4.1334330000    -0.0683880000    -1.7738310000 
 C        3.1061400000     1.0740510000     0.7734770000 
 C        4.0408530000    -0.0028180000     1.3570790000 
 C        3.1157190000    -1.0935710000     0.7853170000 
 H        0.4165730000     0.8602780000    -0.4082160000 
 H        0.5461510000    -0.0108890000     1.1232050000 
 H        0.4216850000    -0.9085640000    -0.3926260000 
 H        2.2807950000     0.8315970000    -2.0159680000 
 H        2.3374520000    -0.9351100000    -1.9818130000 
 H        4.5144420000     0.7679470000    -1.4953170000 
 H        2.4574420000     1.5266640000     1.5264810000 
 H        3.5707330000     1.8894790000     0.2092080000 
 H        4.1738140000     0.0092030000     2.4397350000 
 H        5.0255890000    -0.0110980000     0.8889310000 
 H        2.4729690000    -1.5491360000     1.5418990000 
 H        3.6007630000    -1.8841020000     0.2105920000 
*
