! RI PBE def2-SVP def2-SVP/J NBO PAL2
% maxcore 2000
% output
    # printlevel mini
    print[ P_Basis ] 0
    print[ P_SCFInfo ] 1
    print[ P_SCFIterInfo ] 1
    print[ P_OrbEn ] 0
    print[ P_Cartesian ] 0
end
*xyz 0 1
 C        0.9561010000     0.0852740000     0.5036190000 
 C        2.3463350000    -0.0114680000    -0.0979960000 
 C        2.6376280000     1.1878120000    -0.9827530000 
 O        3.9631840000     1.1900670000    -1.4907750000 
 C        4.3829670000    -0.0058730000    -1.9613510000 
 C        3.7664060000    -1.1690730000    -1.7691550000 
 C        2.5433220000    -1.2843070000    -0.9157190000 
 H        0.8505300000     0.9708850000     1.1356730000 
 H        0.7347110000    -0.7911320000     1.1175600000 
 H        0.1943530000     0.1397090000    -0.2803920000 
 H        3.0888910000    -0.0049720000     0.7091230000 
 H        2.5282700000     2.1250290000    -0.4338340000 
 H        1.9373140000     1.1990350000    -1.8302980000 
 H        5.3049070000     0.0915750000    -2.5230570000 
 H        4.1971710000    -2.0547790000    -2.2198480000 
 H        2.6308960000    -2.1456610000    -0.2444020000 
 H        1.6523040000    -1.4740420000    -1.5301050000 
*
