! RI PBE def2-SVP def2-SVP/J NBO PAL2
% maxcore 2000
% output
    # printlevel mini
    print[ P_Basis ] 0
    print[ P_SCFInfo ] 1
    print[ P_SCFIterInfo ] 1
    print[ P_OrbEn ] 0
    print[ P_Cartesian ] 0
end
*xyz 0 1
 C        1.0337980000    -0.0536080000    -0.0956530000 
 C        2.5248350000    -0.1254580000     0.1576740000 
 C        3.0622070000     0.9775840000     1.0585680000 
 O        4.2805000000     0.4780910000     1.5967770000 
 C        4.2850980000    -0.8842080000     1.5441620000 
 C        5.3083120000    -1.6027980000     1.9901320000 
 C        3.0041670000    -1.3581650000     0.9213860000 
 H        0.7580730000     0.8788790000    -0.5950060000 
 H        0.4759480000    -0.1087790000     0.8438370000 
 H        0.7007560000    -0.8778070000    -0.7304450000 
 H        3.0627140000    -0.0773930000    -0.7960020000 
 H        2.3604080000     1.1896020000     1.8769590000 
 H        3.2805280000     1.9107900000     0.5363390000 
 H        6.1746140000    -1.1297080000     2.4329070000 
 H        5.2829690000    -2.6807120000     1.9168430000 
 H        2.2810860000    -1.6112900000     1.7067720000 
 H        3.1439870000    -2.2419200000     0.2990430000 
*
