! RI PBE def2-SVP def2-SVP/J NBO PAL2
% maxcore 2000
% output
    # printlevel mini
    print[ P_Basis ] 0
    print[ P_SCFInfo ] 1
    print[ P_SCFIterInfo ] 1
    print[ P_OrbEn ] 0
    print[ P_Cartesian ] 0
end
*xyz 0 1
 C        0.8359810000    -0.0161720000     0.1286250000 
 C        2.3430970000    -0.0689920000    -0.0301810000 
 C        3.0916690000     0.9960500000     0.7703080000 
 O        4.3812470000     0.4743520000     0.9767750000 
 C        4.1986430000    -0.8924560000     1.3159990000 
 C        5.4893700000    -1.6366960000     1.0890720000 
 C        3.0036930000    -1.3666740000     0.4708580000 
 H        0.4334260000     0.9480970000    -0.1942110000 
 H        0.5490660000    -0.1648570000     1.1741100000 
 H        0.3458300000    -0.7921780000    -0.4641990000 
 H        2.5947380000     0.0685750000    -1.0861840000 
 H        2.5851970000     1.1700900000     1.7348860000 
 H        3.1860370000     1.9530300000     0.2537200000 
 H        3.9277990000    -0.9489440000     2.3828530000 
 H        5.7721300000    -1.5906610000     0.0345480000 
 H        5.3795150000    -2.6857360000     1.3738790000 
 H        6.2959600000    -1.2025150000     1.6829110000 
 H        2.3111260000    -1.9634370000     1.0699610000 
 H        3.3370640000    -1.9912750000    -0.3613100000 
*
