! RI PBE def2-SVP def2-SVP/J NBO PAL2
% maxcore 2000
% output
    # printlevel mini
    print[ P_Basis ] 0
    print[ P_SCFInfo ] 1
    print[ P_SCFIterInfo ] 1
    print[ P_OrbEn ] 0
    print[ P_Cartesian ] 0
end
*xyz 0 1
 C        0.9420950000    -0.0028970000    -0.0472550000 
 C        2.4604810000     0.1472550000    -0.0540520000 
 C        3.2012640000    -1.0336200000     0.5945040000 
 O        3.6201130000    -0.6015370000     1.8968200000 
 C        3.5316990000     0.7591600000     1.9064920000 
 C        4.0870530000     1.4075830000     3.1145080000 
 C        2.9385930000     1.2680580000     0.8285590000 
 H        0.6242320000    -0.8462260000    -0.6674610000 
 H        0.4583910000     0.8978680000    -0.4332310000 
 H        0.5781830000    -0.1674440000     0.9702820000 
 H        2.7962190000     0.2696860000    -1.0891630000 
 H        4.0985380000    -1.3036390000     0.0281960000 
 H        2.5785220000    -1.9220880000     0.7170000000 
 H        3.5815390000     1.0367480000     4.0105070000 
 H        3.9635760000     2.4884840000     3.0614540000 
 H        5.1498770000     1.1746690000     3.2219290000 
 H        2.7486260000     2.3171610000     0.6570100000 
*
