! RI PBE def2-SVP def2-SVP/J NBO PAL2
% maxcore 2000
% output
    # printlevel mini
    print[ P_Basis ] 0
    print[ P_SCFInfo ] 1
    print[ P_SCFIterInfo ] 1
    print[ P_OrbEn ] 0
    print[ P_Cartesian ] 0
end
*xyz 0 1
 C        1.1451190000     0.0154050000    -0.1059540000 
 C        2.6206860000     0.0613740000     0.0345400000 
 C        3.3190140000     1.1505250000     0.3635300000 
 O        4.6824690000     1.2028300000     0.4348360000 
 C        5.2844160000     0.0864190000    -0.1842750000 
 C        4.5675120000    -1.1831750000     0.2154840000 
 O        3.2201840000    -1.1442420000    -0.2112280000 
 H        0.7092280000     0.9961760000     0.0849280000 
 H        0.7101530000    -0.7057170000     0.5922660000 
 H        0.8643560000    -0.2974810000    -1.1162030000 
 H        2.8412810000     2.0910980000     0.5974270000 
 H        6.3279460000     0.0650060000     0.1342920000 
 H        5.2442190000     0.2032740000    -1.2748160000 
 H        4.6040230000    -1.2979190000     1.3058770000 
 H        5.0252850000    -2.0573740000    -0.2504160000 
*
