! RI PBE def2-SVP def2-SVP/J NBO PAL2
% maxcore 2000
% output
    # printlevel mini
    print[ P_Basis ] 0
    print[ P_SCFInfo ] 1
    print[ P_SCFIterInfo ] 1
    print[ P_OrbEn ] 0
    print[ P_Cartesian ] 0
end
*xyz 0 1
 C        0.9335020000    -0.0898350000     0.3283500000 
 C        2.3447290000    -0.1476710000    -0.1970930000 
 C        2.7622170000     1.1315670000    -0.9020450000 
 O        4.0969260000     1.0529400000    -1.3602220000 
 C        4.3567490000    -0.1429540000    -1.9567880000 
 C        3.5607870000    -1.2056240000    -1.8593120000 
 O        2.4273440000    -1.2383110000    -1.1058480000 
 H        0.8410030000     0.6776010000     1.0995680000 
 H        0.6561280000    -1.0508410000     0.7638120000 
 H        0.2312420000     0.1356430000    -0.4774670000 
 H        3.0551010000    -0.3333470000     0.6205800000 
 H        2.7090450000     1.9836840000    -0.2227540000 
 H        2.0901740000     1.3079210000    -1.7523150000 
 H        5.2726450000    -0.1552000000    -2.5299150000 
 H        3.7680070000    -2.1316020000    -2.3765420000 
*
