! RI PBE def2-SVP def2-SVP/J NBO PAL2
% maxcore 2000
% output
    # printlevel mini
    print[ P_Basis ] 0
    print[ P_SCFInfo ] 1
    print[ P_SCFIterInfo ] 1
    print[ P_OrbEn ] 0
    print[ P_Cartesian ] 0
end
*xyz 0 1
 C        0.9943490000    -0.1702850000     0.0913610000 
 C        2.4841240000    -0.0227380000    -0.1009290000 
 C        3.1406010000     1.0448290000     0.7729020000 
 O        4.4127220000     0.5066560000     1.0452980000 
 C        4.1796940000    -0.8668450000     1.2087750000 
 C        5.4342670000    -1.6527920000     0.9636810000 
 O        3.1739830000    -1.2104790000     0.2762090000 
 H        0.4775940000     0.7463030000    -0.2070950000 
 H        0.7587600000    -0.3773050000     1.1378900000 
 H        0.6082470000    -0.9899350000    -0.5166490000 
 H        2.7055320000     0.1715520000    -1.1578360000 
 H        2.5694560000     1.1891960000     1.7025380000 
 H        3.2635970000     2.0066530000     0.2749660000 
 H        3.7909000000    -1.0487280000     2.2269610000 
 H        5.8043220000    -1.4502940000    -0.0422800000 
 H        5.2263150000    -2.7191170000     1.0607330000 
 H        6.1974370000    -1.3756610000     1.6926430000 
*
