! RI PBE def2-SVP def2-SVP/J NBO PAL2
% maxcore 2000
% output
    # printlevel mini
    print[ P_Basis ] 0
    print[ P_SCFInfo ] 1
    print[ P_SCFIterInfo ] 1
    print[ P_OrbEn ] 0
    print[ P_Cartesian ] 0
end
*xyz 0 1
 C        0.9377580000    -0.0495250000     0.0216380000 
 C        2.4525990000    -0.0841220000    -0.1098950000 
 C        2.9618940000    -1.4607880000    -0.5224200000 
 O        2.6118110000    -1.7493450000    -1.8624430000 
 C        3.1149220000    -0.7750730000    -2.7242360000 
 O        2.6115570000     0.4976760000    -2.4563780000 
 C        2.9616270000     0.9090130000    -1.1488090000 
 H        0.5935740000    -0.7647950000     0.7728990000 
 H        0.4620200000    -0.3004650000    -0.9275330000 
 H        0.5933810000     0.9434660000     0.3213700000 
 H        2.9091800000     0.1707720000     0.8542460000 
 H        2.5263230000    -2.2520060000     0.0909040000 
 H        4.0574170000    -1.5034870000    -0.4136120000 
 H        2.8034170000    -1.0418910000    -3.7335460000 
 H        4.2192310000    -0.7561190000    -2.6529990000 
 H        2.5258540000     1.8998570000    -1.0065220000 
 H        4.0571350000     1.0001310000    -1.0753720000 
*
