! RI PBE def2-SVP def2-SVP/J NBO PAL2
% maxcore 2000
% output
    # printlevel mini
    print[ P_Basis ] 0
    print[ P_SCFInfo ] 1
    print[ P_SCFIterInfo ] 1
    print[ P_OrbEn ] 0
    print[ P_Cartesian ] 0
end
*xyz 0 1
 C        1.0591330000     0.0383810000     0.2051620000 
 C        2.3762210000     0.0187300000     0.0682290000 
 C        3.1897710000    -1.2397880000     0.0108800000 
 O        4.1221200000    -1.1873920000    -1.0548520000 
 C        4.9019640000    -0.0349000000    -0.9784680000 
 O        4.1518350000     1.1331180000    -1.1020450000 
 C        3.2216880000     1.2526400000    -0.0398090000 
 H        0.4839580000    -0.8780880000     0.2869150000 
 H        0.5076480000     0.9718390000     0.2492930000 
 H        2.5636520000    -2.1177080000    -0.1497800000 
 H        3.7352060000    -1.3700440000     0.9611290000 
 H        5.5992960000    -0.0608410000    -1.8149450000 
 H        5.4520730000    -0.0224130000    -0.0181030000 
 H        2.6181620000     2.1390420000    -0.2363490000 
 H        3.7707740000     1.4074120000     0.9046440000 
*
