! RI PBE def2-SVP def2-SVP/J NBO PAL2
% maxcore 2000
% output
    # printlevel mini
    print[ P_Basis ] 0
    print[ P_SCFInfo ] 1
    print[ P_SCFIterInfo ] 1
    print[ P_OrbEn ] 0
    print[ P_Cartesian ] 0
end
*xyz 0 1
 C        1.1301810000    -0.0671260000     0.2510790000 
 C        2.4318510000    -0.0917970000     0.0158850000 
 C        3.3349290000     1.1157350000    -0.0229260000 
 O        4.6458180000     0.6372000000    -0.3061500000 
 C        4.6833330000    -0.7060890000    -0.4493260000 
 O        5.6922770000    -1.2923030000    -0.6893930000 
 C        3.2961010000    -1.2793100000    -0.2592140000 
 H        0.6068010000     0.8641670000     0.4392090000 
 H        0.5382840000    -0.9747670000     0.2647250000 
 H        3.3616000000     1.6471280000     0.9323100000 
 H        3.0505560000     1.8238890000    -0.8060030000 
 H        3.3205630000    -2.0023120000     0.5599250000 
 H        3.0126050000    -1.8278240000    -1.1609190000 
*
