! RI PBE def2-SVP def2-SVP/J NBO PAL2
% maxcore 2000
% output
    # printlevel mini
    print[ P_Basis ] 0
    print[ P_SCFInfo ] 1
    print[ P_SCFIterInfo ] 1
    print[ P_OrbEn ] 0
    print[ P_Cartesian ] 0
end
*xyz 0 1
 C        1.1149490000     0.0118940000    -0.2122770000 
 C        2.5923910000     0.0347900000    -0.0182890000 
 C        3.2845960000     1.1621530000     0.1329990000 
 O        4.6363970000     1.2081520000     0.2578010000 
 C        5.2339920000    -0.0012570000    -0.1470010000 
 O        4.6620900000    -1.1036330000     0.4674370000 
 C        3.3170990000    -1.2728890000     0.0600870000 
 H        0.7039400000     1.0227380000    -0.2348800000 
 H        0.6144910000    -0.5392870000     0.5914540000 
 H        0.8417010000    -0.4797320000    -1.1526100000 
 H        2.8304940000     2.1460930000     0.1694560000 
 H        6.2787680000     0.0456050000     0.1549240000 
 H        5.1404320000    -0.0774320000    -1.2421220000 
 H        2.8529750000    -1.9161340000     0.8145870000 
 H        3.2707750000    -1.8134510000    -0.8995650000 
*
