! RI PBE def2-SVP def2-SVP/J NBO PAL2
% maxcore 2000
% output
    # printlevel mini
    print[ P_Basis ] 0
    print[ P_SCFInfo ] 1
    print[ P_SCFIterInfo ] 1
    print[ P_OrbEn ] 0
    print[ P_Cartesian ] 0
end
*xyz 0 1
 C        0.9029220000    -0.0442660000     0.0450740000 
 C        2.3782330000    -0.0187930000    -0.1026900000 
 C        3.2029380000    -1.0450810000    -0.2700980000 
 O        4.5359540000    -0.6983360000    -0.3772700000 
 C        4.6274420000     0.6659200000    -0.2752910000 
 O        5.6680750000     1.2379860000    -0.3346080000 
 C        3.2266080000     1.2120390000    -0.0885980000 
 H        0.5194920000    -1.0649540000     0.0008900000 
 H        0.4148040000     0.5352860000    -0.7449430000 
 H        0.5919400000     0.3932490000     0.9990840000 
 H        3.0065090000    -2.1049070000    -0.3365310000 
 H        3.0004810000     1.9183340000    -0.8939150000 
 H        3.1774020000     1.7764120000     0.8481970000 
*
