! RI PBE def2-SVP def2-SVP/J NBO PAL2
% maxcore 2000
% output
    # printlevel mini
    print[ P_Basis ] 0
    print[ P_SCFInfo ] 1
    print[ P_SCFIterInfo ] 1
    print[ P_OrbEn ] 0
    print[ P_Cartesian ] 0
end
*xyz 0 1
 C        0.8638310000    -0.0996840000     0.0561830000 
 C        2.3703250000    -0.0388670000    -0.0793540000 
 C        2.7671610000    -0.0233500000    -1.5472500000 
 O        4.1530370000    -0.0963370000    -1.7821850000 
 C        3.0664820000     1.0238680000     0.7893690000 
 O        3.8040040000     0.0357030000     1.5083720000 
 C        3.1658940000    -1.0301030000     0.7881010000 
 H        0.3874280000     0.7546120000    -0.4344410000 
 H        0.5640660000    -0.0917670000     1.1064550000 
 H        0.4644860000    -1.0103170000    -0.3998930000 
 H        2.3306330000     0.8674570000    -2.0244360000 
 H        2.3376200000    -0.8980550000    -2.0448490000 
 H        4.5783490000     0.6669780000    -1.3821650000 
 H        2.3976810000     1.5981800000     1.4410800000 
 H        3.7267070000     1.7315620000     0.2679790000 
 H        2.5573940000    -1.6578760000     1.4482600000 
 H        3.8922920000    -1.6451920000     0.2501840000 
*
