! RI PBE def2-SVP def2-SVP/J NBO PAL2
% maxcore 2000
% output
    # printlevel mini
    print[ P_Basis ] 0
    print[ P_SCFInfo ] 1
    print[ P_SCFIterInfo ] 1
    print[ P_OrbEn ] 0
    print[ P_Cartesian ] 0
end
*xyz 0 1
 C        0.9286940000    -0.0704760000    -0.0721820000 
 C        2.4363570000    -0.1258290000     0.0598850000 
 C        3.0216820000     0.9775130000     0.9378940000 
 O        4.2659180000     0.4765350000     1.4257590000 
 C        4.2911050000    -0.8755800000     1.3639100000 
 O        5.2159490000    -1.5150320000     1.7600630000 
 C        2.9999800000    -1.3624770000     0.7437810000 
 H        0.6029630000     0.8766110000    -0.5102790000 
 H        0.4475040000    -0.1719050000     0.9048560000 
 H        0.5588260000    -0.8742930000    -0.7122080000 
 H        2.8907380000    -0.0438770000    -0.9337760000 
 H        2.3695880000     1.1934200000     1.7925470000 
 H        3.2195600000     1.9072370000     0.4036360000 
 H        2.3484070000    -1.7013520000     1.5579480000 
 H        3.1871490000    -2.2148850000     0.0925560000 
*
