! RI PBE def2-SVP def2-SVP/J NBO PAL2
% maxcore 2000
% output
    # printlevel mini
    print[ P_Basis ] 0
    print[ P_SCFInfo ] 1
    print[ P_SCFIterInfo ] 1
    print[ P_OrbEn ] 0
    print[ P_Cartesian ] 0
end
*xyz 0 1
 C        0.8880980000     0.1009370000    -0.1442230000 
 C        2.3481960000     0.3175980000     0.1046060000 
 O        3.2294750000    -0.7159840000    -0.3102290000 
 C        3.3005300000     0.5410490000    -0.9807650000 
 C        4.5540020000     1.3292190000    -0.8676590000 
 C        4.4828190000     2.8139170000    -0.6523830000 
 C        5.0205630000     1.9219090000     0.4226200000 
 H        0.4775830000    -0.6091500000     0.5780650000 
 H        0.7215190000    -0.2964980000    -1.1469140000 
 H        0.3370440000     1.0398730000    -0.0436190000 
 H        2.5945600000     0.7253200000     1.0843720000 
 H        2.8905820000     0.5037220000    -1.9914880000 
 H        5.3376540000     0.9878220000    -1.5374800000 
 H        3.5005170000     3.2449740000    -0.4991120000 
 H        5.1717130000     3.4470790000    -1.1971360000 
 H        4.4184550000     1.7727590000     1.3093240000 
 H        6.0870000000     1.9297330000     0.6089210000 
*
