! RI PBE def2-SVP def2-SVP/J NBO PAL2
% maxcore 2000
% output
    # printlevel mini
    print[ P_Basis ] 0
    print[ P_SCFInfo ] 1
    print[ P_SCFIterInfo ] 1
    print[ P_OrbEn ] 0
    print[ P_Cartesian ] 0
end
*xyz 0 1
 C        0.9839090000    -0.0898510000     0.0612880000 
 C        2.4737480000     0.0292380000     0.0268610000 
 O        3.1110750000    -0.2257170000    -1.2204120000 
 C        3.1575070000     1.0951050000    -0.7011300000 
 C        4.5013080000     1.5803230000    -0.2972280000 
 C        5.1757770000     2.6406820000    -1.0387660000 
 O        4.5500460000     2.9053560000     0.2061090000 
 H        0.6822150000    -1.1399650000     0.0764400000 
 H        0.5389790000     0.3826250000    -0.8160930000 
 H        0.5846950000     0.3903070000     0.9582340000 
 H        3.0033080000    -0.4029590000     0.8765140000 
 H        2.5493220000     1.8251310000    -1.2356850000 
 H        5.1100140000     0.8566100000     0.2432660000 
 H        4.6863840000     3.0766050000    -1.9067090000 
 H        6.2615230000     2.6900210000    -1.0343890000 
*
