! RI PBE def2-SVP def2-SVP/J NBO PAL2
% maxcore 2000
% output
    # printlevel mini
    print[ P_Basis ] 0
    print[ P_SCFInfo ] 1
    print[ P_SCFIterInfo ] 1
    print[ P_OrbEn ] 0
    print[ P_Cartesian ] 0
end
*xyz 0 1
 C        0.8778790000    -0.0196870000    -0.0363310000 
 C        2.3436650000     0.2204710000     0.1310620000 
 O        3.2237350000    -0.6733360000    -0.5490860000 
 C        3.1969670000     0.6824320000    -0.9571400000 
 C        4.4626250000     1.4662410000    -0.7079980000 
 C        4.2541870000     2.8989720000    -0.8350110000 
 C        4.0594110000     4.0777010000    -0.9493480000 
 H        0.5548330000    -0.8677190000     0.5723700000 
 H        0.6390170000    -0.2349310000    -1.0791390000 
 H        0.3101520000     0.8592980000     0.2792310000 
 H        2.6716190000     0.4581820000     1.1434430000 
 H        2.7340590000     0.8540180000    -1.9284510000 
 H        5.2294050000     1.1432310000    -1.4210270000 
 H        4.8399250000     1.2257920000     0.2906290000 
 H        3.8944320000     5.1245260000    -1.0472140000 
*
