! RI PBE def2-SVP def2-SVP/J NBO PAL2
% maxcore 2000
% output
    # printlevel mini
    print[ P_Basis ] 0
    print[ P_SCFInfo ] 1
    print[ P_SCFIterInfo ] 1
    print[ P_OrbEn ] 0
    print[ P_Cartesian ] 0
end
*xyz 0 1
 C        0.5480470000    -0.1219150000    -0.5060530000 
 C        1.9260500000    -0.0365100000     0.0668950000 
 O        2.8594250000    -1.0154320000    -0.3835780000 
 C        3.0894700000     0.3593870000    -0.7216340000 
 C        4.3154950000     0.9913350000    -0.1302540000 
 C        5.5923430000     0.3128360000    -0.6060310000 
 O        5.7488940000    -0.9763140000    -0.0649010000 
 H       -0.0093190000    -0.9416350000    -0.0463820000 
 H        0.5874030000    -0.2951230000    -1.5827630000 
 H       -0.0003660000     0.8050430000    -0.3193420000 
 H        1.9813070000     0.1465710000     1.1400530000 
 H        2.9230800000     0.5628090000    -1.7802680000 
 H        4.2766120000     0.9405910000     0.9621410000 
 H        4.3338110000     2.0494880000    -0.4135570000 
 H        6.4624280000     0.8934030000    -0.2885070000 
 H        5.6062440000     0.2843840000    -1.7071880000 
 H        4.8921660000    -1.4165180000    -0.1067310000 
*
