! RI PBE def2-SVP def2-SVP/J NBO PAL2
% maxcore 2000
% output
    # printlevel mini
    print[ P_Basis ] 0
    print[ P_SCFInfo ] 1
    print[ P_SCFIterInfo ] 1
    print[ P_OrbEn ] 0
    print[ P_Cartesian ] 0
end
*xyz 0 1
 C        0.7982650000    -0.2383250000    -0.0743900000 
 C        2.2881390000    -0.2888600000     0.0413520000 
 O        3.0093120000    -0.9276550000    -1.0210620000 
 C        3.2265140000     0.4677520000    -0.7895080000 
 C        2.7895990000     1.4053760000    -1.8742730000 
 C        4.6128460000     0.7529230000    -0.2462200000 
 O        5.0781310000    -0.2518500000     0.6111940000 
 H        0.3717670000    -1.2152400000     0.1666030000 
 H        0.4699780000     0.0333610000    -1.0769340000 
 H        0.3907740000     0.4860270000     0.6360620000 
 H        2.6579640000    -0.5725760000     1.0258920000 
 H        1.8036820000     1.1524590000    -2.2597100000 
 H        3.4966920000     1.3702770000    -2.7072320000 
 H        2.7625060000     2.4329370000    -1.5008190000 
 H        4.6029470000     1.6906160000     0.3171620000 
 H        5.2932430000     0.8902250000    -1.1012820000 
 H        4.8589420000    -1.0886580000     0.1822530000 
*
