! RI PBE def2-SVP def2-SVP/J NBO PAL2
% maxcore 2000
% output
    # printlevel mini
    print[ P_Basis ] 0
    print[ P_SCFInfo ] 1
    print[ P_SCFIterInfo ] 1
    print[ P_OrbEn ] 0
    print[ P_Cartesian ] 0
end
*xyz 0 1
 C        0.7016860000     0.1230440000    -0.5494270000 
 C        2.0708960000     0.3263290000     0.0136280000 
 O        2.9543630000    -0.7916270000    -0.0144050000 
 C        3.2677430000     0.3362170000    -0.8195190000 
 C        4.5044630000     1.0891940000    -0.4371260000 
 C        4.6126040000     2.4477710000    -1.0624020000 
 O        3.7990130000     2.9271190000    -1.8035590000 
 H        0.0744790000    -0.4321590000     0.1522970000 
 H        0.7499130000    -0.4364970000    -1.4849610000 
 H        0.2252630000     1.0872530000    -0.7431260000 
 H        2.1178160000     0.8876390000     0.9476150000 
 H        3.1316370000     0.1773760000    -1.8878150000 
 H        5.4062340000     0.5259710000    -0.7145080000 
 H        4.5662170000     1.2071270000     0.6517020000 
 H        5.5315750000     3.0121630000    -0.7915030000 
*
