! RI PBE def2-SVP def2-SVP/J NBO PAL2
% maxcore 2000
% output
    # printlevel mini
    print[ P_Basis ] 0
    print[ P_SCFInfo ] 1
    print[ P_SCFIterInfo ] 1
    print[ P_OrbEn ] 0
    print[ P_Cartesian ] 0
end
*xyz 0 1
 C        1.1944830000    -0.0788930000     0.0299800000 
 C        2.5147640000     0.0222850000     0.0064420000 
 O        3.3834680000    -1.0418100000     0.0540220000 
 C        4.6624850000    -0.3706360000    -0.0007640000 
 C        4.4500540000     0.6582140000    -1.1176070000 
 C        3.4308830000     1.2026510000    -0.0718210000 
 C        4.4787760000     0.7763440000     1.0000780000 
 H        0.7072030000    -1.0430390000     0.0903640000 
 H        0.5854660000     0.8130180000    -0.0115150000 
 H        5.4613730000    -1.1066510000     0.0294580000 
 H        4.0655370000     0.2933760000    -2.0706200000 
 H        5.3009940000     1.3250950000    -1.2546910000 
 H        2.9864020000     2.1928780000    -0.1210300000 
 H        4.1207180000     0.5203220000     1.9977960000 
 H        5.3321040000     1.4530480000     1.0390990000 
*
