! RI PBE def2-SVP def2-SVP/J NBO PAL2
% maxcore 2000
% output
    # printlevel mini
    print[ P_Basis ] 0
    print[ P_SCFInfo ] 1
    print[ P_SCFIterInfo ] 1
    print[ P_OrbEn ] 0
    print[ P_Cartesian ] 0
end
*xyz 0 1
 C        1.0571930000     0.1424900000     0.3545410000 
 C        2.4895560000     0.0135560000    -0.1064540000 
 O        2.7725740000    -1.2906520000    -0.5859110000 
 C        2.5607970000    -1.2542100000    -1.9694170000 
 C        3.6946140000    -0.7099090000    -2.7898810000 
 C        2.5658040000     0.1792010000    -2.3537550000 
 O        2.7814080000     0.9006590000    -1.1731480000 
 H        0.8618650000    -0.5587190000     1.1678200000 
 H        0.3749800000    -0.0758570000    -0.4700790000 
 H        0.8683350000     1.1577080000     0.7080100000 
 H        3.1930700000     0.2274200000     0.7024090000 
 H        1.8718890000    -1.9943360000    -2.3577650000 
 H        3.7367090000    -0.9907380000    -3.8359920000 
 H        4.6459460000    -0.5786670000    -2.2899810000 
 H        1.8804600000     0.6308640000    -3.0604960000 
*
