! RI PBE def2-SVP def2-SVP/J NBO PAL2
% maxcore 2000
% output
    # printlevel mini
    print[ P_Basis ] 0
    print[ P_SCFInfo ] 1
    print[ P_SCFIterInfo ] 1
    print[ P_OrbEn ] 0
    print[ P_Cartesian ] 0
end
*xyz 0 1
 C        1.0687730000     0.1052390000     0.0284560000 
 C        2.5599400000    -0.0752630000     0.0010370000 
 O        3.2684320000     0.9626800000     0.7009240000 
 C        4.1756160000     0.0034420000     1.2555440000 
 C        3.2713210000    -1.1686100000     0.8396750000 
 C        2.4539050000    -1.7054770000     1.9995870000 
 C        3.9185160000    -2.2886910000     0.0542340000 
 H        0.8019070000     1.0383330000    -0.4737800000 
 H        0.6860270000     0.1472540000     1.0490030000 
 H        0.5739110000    -0.7137630000    -0.5008140000 
 H        2.9049020000    -0.1162850000    -1.0435590000 
 H        4.3291960000     0.1557710000     2.3285570000 
 H        5.1462350000     0.0216280000     0.7429050000 
 H        2.0205990000    -0.8990340000     2.5949010000 
 H        3.0884130000    -2.3026850000     2.6610030000 
 H        1.6399340000    -2.3480190000     1.6522500000 
 H        4.5152560000    -1.9008410000    -0.7751200000 
 H        3.1634170000    -2.9632130000    -0.3608590000 
 H        4.5762000000    -2.8868660000     0.6918350000 
*
