! RI PBE def2-SVP def2-SVP/J NBO PAL2
% maxcore 2000
% output
    # printlevel mini
    print[ P_Basis ] 0
    print[ P_SCFInfo ] 1
    print[ P_SCFIterInfo ] 1
    print[ P_OrbEn ] 0
    print[ P_Cartesian ] 0
end
*xyz 0 1
 C        0.9795850000    -0.0151900000     0.2958510000 
 C        2.4713690000    -0.0042450000     0.1268090000 
 O        3.1029490000     1.1426430000     0.7237650000 
 C        4.1067530000     0.3141120000     1.3181130000 
 C        3.3273730000    -0.9661280000     0.9793850000 
 C        4.0357110000    -2.0769950000     0.3028950000 
 C        3.9885160000    -3.3495150000     0.6750730000 
 H        0.5296560000     0.8352170000    -0.2220460000 
 H        0.7104170000     0.0432870000     1.3528170000 
 H        0.5594770000    -0.9325510000    -0.1255320000 
 H        2.7365140000    -0.0670960000    -0.9386150000 
 H        4.2574790000     0.5382020000     2.3773840000 
 H        5.0659270000     0.3953560000     0.7910990000 
 H        2.7612620000    -1.3347940000     1.8384110000 
 H        4.6326860000    -1.8008270000    -0.5657680000 
 H        3.4074130000    -3.6656920000     1.5360300000 
 H        4.5281130000    -4.1196840000     0.1364280000 
*
