! RI PBE def2-SVP def2-SVP/J NBO PAL2
% maxcore 2000
% output
    # printlevel mini
    print[ P_Basis ] 0
    print[ P_SCFInfo ] 1
    print[ P_SCFIterInfo ] 1
    print[ P_OrbEn ] 0
    print[ P_Cartesian ] 0
end
*xyz 0 1
 C        0.8460510000     0.0262040000    -0.1392870000 
 C        2.3388920000    -0.0131590000     0.0133510000 
 O        2.7844350000     0.1629930000     1.3262550000 
 C        3.1637700000    -0.8984110000    -0.8746690000 
 C        3.2066740000     0.6021620000    -1.0347140000 
 C        4.4583470000     1.3519130000    -0.6821540000 
 O        4.2358940000     2.7280310000    -0.4498160000 
 H        0.3747360000    -0.7923830000     0.4145450000 
 H        0.5544530000    -0.0703810000    -1.1872000000 
 H        0.4534090000     0.9698200000     0.2466710000 
 H        2.5700640000    -0.6326780000     1.8215470000 
 H        2.6731020000    -1.4941150000    -1.6352120000 
 H        4.0352910000    -1.3582940000    -0.4219960000 
 H        2.6777430000     0.9965150000    -1.8998390000 
 H        5.2063430000     1.2065910000    -1.4750210000 
 H        4.8735660000     0.9548990000     0.2449420000 
 H        3.9114200000     3.1232940000    -1.2625950000 
*
