! RI PBE def2-SVP def2-SVP/J NBO PAL2
% maxcore 2000
% output
    # printlevel mini
    print[ P_Basis ] 0
    print[ P_SCFInfo ] 1
    print[ P_SCFIterInfo ] 1
    print[ P_OrbEn ] 0
    print[ P_Cartesian ] 0
end
*xyz 0 1
 C        1.0328610000     0.2759090000     0.4060270000 
 C        2.2607950000    -0.3432940000    -0.2153370000 
 O        1.8838830000    -1.5533480000    -0.8616050000 
 C        2.8492920000    -1.8522030000    -1.8518710000 
 C        3.3402960000    -0.5173050000    -2.3537960000 
 C        2.2760770000     0.4984870000    -2.6277620000 
 C        2.9514400000     0.4655290000    -1.2914490000 
 H        0.5671460000    -0.4201340000     1.1062020000 
 H        0.3028360000     0.5344940000    -0.3635290000 
 H        1.3009330000     1.1837130000     0.9512670000 
 H        2.9992430000    -0.5629000000     0.5738000000 
 H        2.3587240000    -2.4671890000    -2.6113210000 
 H        3.6871350000    -2.4254370000    -1.4271870000 
 H        4.2922790000    -0.4615750000    -2.8664360000 
 H        1.2500990000     0.1532710000    -2.6947690000 
 H        2.5282200000     1.3174320000    -3.2895690000 
 H        3.6067410000     1.2758410000    -0.9971770000 
*
