! RI PBE def2-SVP def2-SVP/J NBO PAL2
% maxcore 2000
% output
    # printlevel mini
    print[ P_Basis ] 0
    print[ P_SCFInfo ] 1
    print[ P_SCFIterInfo ] 1
    print[ P_OrbEn ] 0
    print[ P_Cartesian ] 0
end
*xyz 0 1
 C        1.0695620000     0.0212440000     0.0524270000 
 C        2.5474050000    -0.0740930000    -0.2471130000 
 O        2.7796320000    -1.1975760000    -1.1304720000 
 C        3.3781880000    -0.7164340000    -2.2343760000 
 C        3.6107350000     0.6014730000    -2.2290210000 
 C        3.1200280000     1.1274220000    -0.9728300000 
 C        3.1386430000     2.3813470000    -0.5164080000 
 H        0.7093510000    -0.8982220000     0.5173700000 
 H        0.5089780000     0.1983530000    -0.8671930000 
 H        0.8845370000     0.8545350000     0.7333610000 
 H        3.1108310000    -0.2837270000     0.6676860000 
 H        3.5979880000    -1.4544850000    -2.9940560000 
 H        4.0750520000     1.1675220000    -3.0212830000 
 H        3.5610550000     3.1853790000    -1.1063250000 
 H        2.7397960000     2.6392630000     0.4575320000 
*
