! RI PBE def2-SVP def2-SVP/J NBO PAL2
% maxcore 2000
% output
    # printlevel mini
    print[ P_Basis ] 0
    print[ P_SCFInfo ] 1
    print[ P_SCFIterInfo ] 1
    print[ P_OrbEn ] 0
    print[ P_Cartesian ] 0
end
*xyz 0 1
 C        1.0157790000     0.1422310000     0.1101180000 
 C        2.4836890000    -0.0586540000    -0.1472030000 
 O        3.2952900000     1.0092760000     0.3744830000 
 C        4.1867150000     0.0811980000     1.0223120000 
 C        5.5701290000     0.1073720000     0.4229930000 
 C        3.2511820000    -1.0983900000     0.6806800000 
 C        3.7870300000    -2.3281120000    -0.0119150000 
 H        0.6567110000     1.0410700000    -0.3969170000 
 H        0.8226400000     0.2509680000     1.1799380000 
 H        0.4427430000    -0.7105340000    -0.2654760000 
 H        2.6629110000    -0.1756120000    -1.2264350000 
 H        4.2476280000     0.3013860000     2.0946470000 
 H        5.5471040000    -0.0834280000    -0.6516820000 
 H        6.2132650000    -0.6402500000     0.8960410000 
 H        6.0196060000     1.0902830000     0.5811980000 
 H        2.6707690000    -1.3905320000     1.5602970000 
 H        4.3572100000    -2.0747800000    -0.9083860000 
 H        2.9675560000    -2.9845090000    -0.3177000000 
 H        4.4391540000    -2.9069620000     0.6475170000 
*
