! RI PBE def2-SVP def2-SVP/J NBO PAL2
% maxcore 2000
% output
    # printlevel mini
    print[ P_Basis ] 0
    print[ P_SCFInfo ] 1
    print[ P_SCFIterInfo ] 1
    print[ P_OrbEn ] 0
    print[ P_Cartesian ] 0
end
*xyz 0 1
 C        1.1857580000     0.0791420000     0.3264120000 
 C        2.6579660000    -0.0153760000    -0.0059370000 
 O        3.3409590000     1.0749510000     0.6007330000 
 C        4.5056540000     0.5948320000     1.2468240000 
 C        4.1380400000    -0.8074910000     1.6934990000 
 C        3.3407850000    -1.3016470000     0.4996260000 
 O        4.2657070000    -1.8318980000    -0.4326050000 
 H        0.8020540000     1.0633050000     0.0524150000 
 H        1.0214950000    -0.0618900000     1.3977230000 
 H        0.6135010000    -0.6772270000    -0.2170680000 
 H        2.7959050000     0.0440240000    -1.0961750000 
 H        4.7407880000     1.2758910000     2.0666710000 
 H        5.3549170000     0.5708480000     0.5515800000 
 H        3.5022860000    -0.7673330000     2.5812930000 
 H        4.9926820000    -1.4534260000     1.8955900000 
 H        2.5991290000    -2.0618030000     0.7738650000 
 H        3.8039750000    -2.0101010000    -1.2558470000 
*
