! RI PBE def2-SVP def2-SVP/J NBO PAL2
% maxcore 2000
% output
    # printlevel mini
    print[ P_Basis ] 0
    print[ P_SCFInfo ] 1
    print[ P_SCFIterInfo ] 1
    print[ P_OrbEn ] 0
    print[ P_Cartesian ] 0
end
*xyz 0 1
 C        1.1676270000    -0.0162160000     0.0314500000 
 C        2.4645640000     0.0579730000    -0.2143920000 
 O        3.2429220000    -1.0435870000    -0.4966260000 
 C        4.5033990000    -0.5862850000    -0.6900440000 
 C        4.6555670000     0.7387600000    -0.5634910000 
 C        3.3384470000     1.2773430000    -0.2428870000 
 O        2.9801750000     2.4140190000    -0.0382790000 
 H        0.6314920000    -0.9560780000     0.0262390000 
 H        0.6390400000     0.9041070000     0.2432520000 
 H        5.2246440000    -1.3574960000    -0.9219460000 
 H        5.5677330000     1.3012600000    -0.6754850000 
*
