! RI PBE def2-SVP def2-SVP/J NBO PAL2
% maxcore 2000
% output
    # printlevel mini
    print[ P_Basis ] 0
    print[ P_SCFInfo ] 1
    print[ P_SCFIterInfo ] 1
    print[ P_OrbEn ] 0
    print[ P_Cartesian ] 0
end
*xyz 0 1
 C        1.0697070000    -0.0438720000     0.0634170000 
 C        2.3541750000    -0.0346430000    -0.2782760000 
 O        3.0473170000     1.0599700000    -0.6585200000 
 C        4.4155930000     0.7402860000    -0.9651160000 
 C        4.6012460000    -0.7519770000    -0.7429850000 
 C        3.2351470000    -1.2332790000    -0.2957900000 
 O        2.9256970000    -2.3578320000    -0.0116800000 
 H        0.4647300000     0.8526470000     0.0622380000 
 H        0.6301030000    -0.9895100000     0.3500100000 
 H        5.0480580000     1.3464380000    -0.3134770000 
 H        4.5988540000     1.0393830000    -1.9990930000 
 H        5.3325810000    -0.9899970000     0.0317860000 
 H        4.8915900000    -1.2946340000    -1.6446040000 
*
