! RI PBE def2-SVP def2-SVP/J NBO PAL2
% maxcore 2000
% output
    # printlevel mini
    print[ P_Basis ] 0
    print[ P_SCFInfo ] 1
    print[ P_SCFIterInfo ] 1
    print[ P_OrbEn ] 0
    print[ P_Cartesian ] 0
end
*xyz 0 1
 C        0.9385580000     0.0244050000     0.3393120000 
 C        2.3846180000     0.1167370000    -0.1120780000 
 O        2.4942200000     0.3161590000    -1.4959050000 
 C        3.2495490000     1.0808780000     0.7345680000 
 C        3.8279190000    -0.1127770000     1.5362190000 
 C        3.2568070000    -1.0146160000     0.4544790000 
 O        3.4962530000    -2.1149910000     0.0566190000 
 H        0.4152860000     0.9413470000     0.0593690000 
 H        0.8585810000    -0.1067230000     1.4214040000 
 H        0.4435190000    -0.8224770000    -0.1424160000 
 H        2.3557670000    -0.5332970000    -1.9284750000 
 H        2.7062000000     1.8362290000     1.3010130000 
 H        4.0028200000     1.5587980000     0.1091230000 
 H        3.3357890000    -0.2718320000     2.4992460000 
 H        4.9072040000    -0.1683500000     1.6805340000 
*
