! RI PBE def2-SVP def2-SVP/J NBO PAL2
% maxcore 2000
% output
    # printlevel mini
    print[ P_Basis ] 0
    print[ P_SCFInfo ] 1
    print[ P_SCFIterInfo ] 1
    print[ P_OrbEn ] 0
    print[ P_Cartesian ] 0
end
*xyz 0 1
 C        0.9751310000     0.0721030000    -0.0430610000 
 C        2.4774740000     0.0330450000    -0.1802960000 
 O        2.8354150000    -1.1036920000    -1.0028820000 
 C        3.2847780000    -0.6067430000    -2.1716750000 
 C        3.3992620000     0.7188700000    -2.2296020000 
 C        3.0707040000     1.2743740000    -0.8799640000 
 O        4.1962090000     1.8240340000    -0.2144550000 
 H        0.6000520000    -0.8648110000     0.3713980000 
 H        0.5069920000     0.2323030000    -1.0175880000 
 H        0.6808750000     0.8883290000     0.6210040000 
 H        2.9598560000    -0.1076950000     0.7898170000 
 H        3.5013780000    -1.3506060000    -2.9277430000 
 H        3.7379580000     1.2956900000    -3.0762630000 
 H        2.3370120000     2.0846940000    -0.9012020000 
 H        4.9537040000     1.2703340000    -0.4281860000 
*
