! RI PBE def2-SVP def2-SVP/J NBO PAL2
% maxcore 2000
% output
    # printlevel mini
    print[ P_Basis ] 0
    print[ P_SCFInfo ] 1
    print[ P_SCFIterInfo ] 1
    print[ P_OrbEn ] 0
    print[ P_Cartesian ] 0
end
*xyz 0 1
 C        0.8842300000     0.1068500000     0.2778210000 
 C        2.3162390000    -0.0578730000    -0.1625430000 
 O        3.2039270000     0.9753660000     0.3107980000 
 C        4.0546350000     0.0655130000     1.0374940000 
 C        5.4896300000     0.0581400000     0.5765840000 
 C        3.1647570000    -1.0826640000     0.5791440000 
 O        3.1422820000    -2.2623810000     0.7329970000 
 H        0.4551750000     1.0072430000    -0.1660870000 
 H        0.8152060000     0.1891470000     1.3641740000 
 H        0.2956280000    -0.7542170000    -0.0467850000 
 H        2.3829730000    -0.1635540000    -1.2534470000 
 H        3.9893380000     0.2455780000     2.1186990000 
 H        5.5563630000    -0.1434270000    -0.4942180000 
 H        6.0471850000    -0.7123510000     1.1139240000 
 H        5.9542410000     1.0255300000     0.7769350000 
*
