! RI PBE def2-SVP def2-SVP/J NBO PAL2
% maxcore 2000
% output
    # printlevel mini
    print[ P_Basis ] 0
    print[ P_SCFInfo ] 1
    print[ P_SCFIterInfo ] 1
    print[ P_OrbEn ] 0
    print[ P_Cartesian ] 0
end
*xyz 0 1
 C        0.9343950000    -0.0238170000     0.0018310000 
 C        2.2686870000    -0.1162690000     0.0016380000 
 O        2.9958460000     1.0614240000     0.0006560000 
 C        4.3392490000     1.0420050000     0.0005350000 
 C        5.0681080000    -0.0784950000     0.0012490000 
 C        4.3692290000    -1.3372210000     0.0022060000 
 C        3.0266950000    -1.3454020000     0.0023880000 
 H        0.4375350000     0.9359580000     0.0012440000 
 H        0.3379990000    -0.9244730000     0.0025860000 
 H        4.7458730000     2.0450240000    -0.0002250000 
 H        6.1469510000    -0.0188780000     0.0010950000 
 H        4.9274480000    -2.2657960000     0.0027760000 
 H        2.4610840000    -2.2686690000     0.0031110000 
*
