! RI PBE def2-SVP def2-SVP/J NBO PAL2
% maxcore 2000
% output
    # printlevel mini
    print[ P_Basis ] 0
    print[ P_SCFInfo ] 1
    print[ P_SCFIterInfo ] 1
    print[ P_OrbEn ] 0
    print[ P_Cartesian ] 0
end
*xyz 0 1
 C        1.0418580000     0.0766840000     0.1295300000 
 C        2.3769930000     0.0510910000     0.0884710000 
 O        3.0728990000     1.1808650000     0.3903690000 
 C        4.3745580000     1.2706170000    -0.1691940000 
 C        5.2316250000     0.0740990000     0.1859160000 
 C        4.4741560000    -1.1772020000    -0.1128500000 
 C        3.1428890000    -1.1550470000    -0.1879330000 
 H        0.5085110000     0.9899140000     0.3570800000 
 H        0.4790270000    -0.8305340000    -0.0390870000 
 H        4.7931830000     2.2003190000     0.2172420000 
 H        4.2933000000     1.3551620000    -1.2606070000 
 H        5.5189280000     0.1049320000     1.2444540000 
 H        6.1620420000     0.1135500000    -0.3896950000 
 H        5.0197180000    -2.1020450000    -0.2679010000 
 H        2.5746220000    -2.0476040000    -0.4220960000 
*
