! RI PBE def2-SVP def2-SVP/J NBO PAL2
% maxcore 2000
% output
    # printlevel mini
    print[ P_Basis ] 0
    print[ P_SCFInfo ] 1
    print[ P_SCFIterInfo ] 1
    print[ P_OrbEn ] 0
    print[ P_Cartesian ] 0
end
*xyz 0 1
 C        0.9427230000     0.0648540000    -0.1675500000 
 C        2.4493970000     0.0478060000    -0.0004030000 
 O        3.0845490000     0.0577520000    -1.2797470000 
 C        2.9996650000     1.1842900000     0.8622040000 
 C        4.4283740000     0.7493270000     1.1824490000 
 C        4.3748370000    -0.7928320000     1.2448050000 
 C        2.9864130000    -1.1883850000     0.7146120000 
 H        0.6193860000     0.9766080000    -0.6800800000 
 H        0.4359780000     0.0296650000     0.7997300000 
 H        0.6169600000    -0.7906420000    -0.7631910000 
 H        2.8488670000     0.8784700000    -1.7217130000 
 H        2.4010030000     1.2590690000     1.7763420000 
 H        2.9408830000     2.1532400000     0.3562700000 
 H        4.7994200000     1.1949260000     2.1074400000 
 H        5.0980780000     1.0664000000     0.3811780000 
 H        4.5223950000    -1.1594840000     2.2628870000 
 H        5.1671340000    -1.2298920000     0.6356070000 
 H        2.3124480000    -1.4368010000     1.5390490000 
 H        3.0087910000    -2.0438710000     0.0372200000 
*
