! RI PBE def2-SVP def2-SVP/J NBO PAL2
% maxcore 2000
% output
    # printlevel mini
    print[ P_Basis ] 0
    print[ P_SCFInfo ] 1
    print[ P_SCFIterInfo ] 1
    print[ P_OrbEn ] 0
    print[ P_Cartesian ] 0
end
*xyz 0 1
 C        0.9015910000    -0.0117410000     0.0112190000 
 C        2.4249620000    -0.0512510000     0.0533920000 
 O        2.9445290000     0.1334400000    -1.2575840000 
 C        2.9677010000    -1.3278380000     0.7313110000 
 C        3.2933380000    -0.9338920000     2.1786350000 
 C        3.4201840000     0.5590430000     2.0957810000 
 C        2.9680520000     1.0339940000     0.9433710000 
 H        0.5151890000    -0.8048260000    -0.6387170000 
 H        0.5537830000     0.9493590000    -0.3735730000 
 H        0.4790040000    -0.1604610000     1.0074860000 
 H        2.4731980000    -0.4565190000    -1.8523550000 
 H        3.8877540000    -1.5989130000     0.2090370000 
 H        2.2750880000    -2.1700320000     0.6591110000 
 H        4.1997150000    -1.4163560000     2.5556610000 
 H        2.4880190000    -1.2127880000     2.8698010000 
 H        3.8074890000     1.1636950000     2.9080900000 
 H        2.9256060000     2.0765660000     0.6507420000 
*
