! RI PBE def2-SVP def2-SVP/J NBO PAL2
% maxcore 2000
% output
    # printlevel mini
    print[ P_Basis ] 0
    print[ P_SCFInfo ] 1
    print[ P_SCFIterInfo ] 1
    print[ P_OrbEn ] 0
    print[ P_Cartesian ] 0
end
*xyz 0 1
 C        0.9098640000     0.1793370000    -0.2018090000 
 C        2.3790670000     0.0698680000     0.1549810000 
 O        2.6050020000    -1.0922110000     0.9578760000 
 C        3.2079650000    -0.7422360000     2.1286370000 
 C        3.5503760000    -1.6306910000     3.0627120000 
 C        3.3822120000     0.7012700000     2.1318780000 
 C        2.9105580000     1.1904810000     0.9884360000 
 H        0.5831430000    -0.7168230000    -0.7318380000 
 H        0.7419480000     1.0430490000    -0.8496890000 
 H        0.3058850000     0.2944230000     0.7001820000 
 H        2.9668500000    -0.0454800000    -0.7676060000 
 H        3.3614160000    -2.6871250000     2.9316810000 
 H        4.0271760000    -1.2923220000     3.9712090000 
 H        3.8280810000     1.2477170000     2.9505090000 
 H        2.8920470000     2.2252420000     0.6743510000 
*
