! RI PBE def2-SVP def2-SVP/J NBO PAL2
% maxcore 2000
% output
    # printlevel mini
    print[ P_Basis ] 0
    print[ P_SCFInfo ] 1
    print[ P_SCFIterInfo ] 1
    print[ P_OrbEn ] 0
    print[ P_Cartesian ] 0
end
*xyz 0 1
 C        1.0640510000     0.0828210000    -0.1172270000 
 C        2.5305040000    -0.0112410000     0.2634990000 
 O        2.7602050000    -1.1539080000     1.0811490000 
 C        3.3431620000    -0.7887940000     2.3276840000 
 C        4.6613540000    -1.5139270000     2.5296710000 
 C        3.4659920000     0.7010420000     2.2550310000 
 C        3.0267930000     1.1364800000     1.0859430000 
 H        0.7518680000    -0.8267410000    -0.6338370000 
 H        0.8940380000     0.9321800000    -0.7843760000 
 H        0.4456120000     0.2084990000     0.7740840000 
 H        3.1255520000    -0.1156520000    -0.6572840000 
 H        2.6541220000    -1.0830740000     3.1348220000 
 H        5.3768340000    -1.2278390000     1.7557620000 
 H        4.5066120000    -2.5934220000     2.4807700000 
 H        5.0870600000    -1.2720250000     3.5072490000 
 H        3.8706950000     1.3010850000     3.0601910000 
 H        3.0038570000     2.1632060000     0.7432690000 
*
