! RI PBE def2-SVP def2-SVP/J NBO PAL2
% maxcore 2000
% output
    # printlevel mini
    print[ P_Basis ] 0
    print[ P_SCFInfo ] 1
    print[ P_SCFIterInfo ] 1
    print[ P_OrbEn ] 0
    print[ P_Cartesian ] 0
end
*xyz 0 1
 C        1.0192190000     0.0646180000    -0.1712870000 
 C        2.4703210000    -0.1102100000     0.2319270000 
 O        2.6015100000    -1.2343940000     1.0998810000 
 C        3.3168490000    -0.8762760000     2.2633120000 
 C        3.5276850000     0.6038420000     2.1743830000 
 C        4.1888880000     1.3762950000     3.2564680000 
 C        3.0484490000     1.0269400000     1.0122420000 
 H        0.6500430000    -0.8433430000    -0.6521240000 
 H        0.9149820000     0.8928310000    -0.8772010000 
 H        0.4026860000     0.2713020000     0.7061110000 
 H        3.0661340000    -0.2970860000    -0.6770920000 
 H        4.2758540000    -1.4169070000     2.3079040000 
 H        2.7426470000    -1.1625670000     3.1557890000 
 H        5.1992980000     0.9994370000     3.4465130000 
 H        3.6376450000     1.2849060000     4.1980710000 
 H        4.2621590000     2.4348840000     3.0050710000 
 H        3.0650490000     2.0466160000     0.6470200000 
*
