! RI PBE def2-SVP def2-SVP/J NBO PAL2
% maxcore 2000
% output
    # printlevel mini
    print[ P_Basis ] 0
    print[ P_SCFInfo ] 1
    print[ P_SCFIterInfo ] 1
    print[ P_OrbEn ] 0
    print[ P_Cartesian ] 0
end
*xyz 0 1
 C        0.9958240000     0.1619480000     0.1479670000 
 C        2.4979000000    -0.0943770000     0.1726950000 
 O        3.2265260000     1.0463440000    -0.2462700000 
 C        3.3995750000     1.1361430000    -1.6429490000 
 C        4.2323320000    -0.0163240000    -2.1700980000 
 C        3.6934800000    -1.3038070000    -1.6353390000 
 C        2.8810670000    -1.3275910000    -0.5859970000 
 H        0.7560860000     1.0330250000     0.7603180000 
 H        0.4527900000    -0.7004270000     0.5427700000 
 H        0.6436450000     0.3398560000    -0.8704350000 
 H        2.7984250000    -0.2379660000     1.2183010000 
 H        3.8824500000     2.0981100000    -1.8247250000 
 H        2.4267040000     1.1482180000    -2.1551200000 
 H        5.2828230000     0.1078630000    -1.8802730000 
 H        4.2107000000    -0.0182570000    -3.2653610000 
 H        3.9722810000    -2.2292410000    -2.1303650000 
 H        2.4691130000    -2.2652150000    -0.2240190000 
*
