! RI PBE def2-SVP def2-SVP/J NBO PAL2
% maxcore 2000
% output
    # printlevel mini
    print[ P_Basis ] 0
    print[ P_SCFInfo ] 1
    print[ P_SCFIterInfo ] 1
    print[ P_OrbEn ] 0
    print[ P_Cartesian ] 0
end
*xyz 0 1
 C        0.8819510000    -0.0310330000     0.3207040000 
 C        2.2324430000     0.0020040000    -0.3262260000 
 O        2.4842310000    -1.1822070000    -1.0660240000 
 C        3.2175840000    -0.7450340000    -2.1479630000 
 C        3.1333600000     0.5738670000    -2.2692220000 
 C        3.6439610000     1.5298650000    -3.2665640000 
 O        2.3397270000     1.0725500000    -1.2547470000 
 H        0.8278510000    -0.8681720000     1.0182010000 
 H        0.1077070000    -0.1452380000    -0.4389330000 
 H        0.7127020000     0.8952840000     0.8716130000 
 H        3.0427240000     0.1182910000     0.4167630000 
 H        3.6976550000    -1.4876940000    -2.7620880000 
 H        4.2148850000     1.0065230000    -4.0336680000 
 H        4.2876290000     2.2817420000    -2.8014850000 
 H        2.8162770000     2.0588420000    -3.7487690000 
*
