! RI PBE def2-SVP def2-SVP/J NBO PAL2
% maxcore 2000
% output
    # printlevel mini
    print[ P_Basis ] 0
    print[ P_SCFInfo ] 1
    print[ P_SCFIterInfo ] 1
    print[ P_OrbEn ] 0
    print[ P_Cartesian ] 0
end
*xyz 0 1
 C        1.2569090000     0.1279650000    -0.2938390000 
 C        2.6983880000     0.0379770000     0.1625370000 
 O        3.4730730000     1.1379890000    -0.1977470000 
 C        3.6038130000     1.3052570000    -1.5997740000 
 C        3.8718100000    -0.0034030000    -2.2577530000 
 C        3.7266870000    -1.1294760000    -1.5662220000 
 O        3.2750180000    -1.1833550000    -0.2938900000 
 H        0.8220950000     1.0683320000     0.0496690000 
 H        0.6868040000    -0.6998260000     0.1296780000 
 H        1.1804250000     0.0745200000    -1.3808290000 
 H        2.7571600000    -0.0134290000     1.2507690000 
 H        4.4458620000     1.9895550000    -1.7338360000 
 H        2.7148510000     1.8047300000    -2.0154150000 
 H        4.2243170000    -0.0374100000    -3.2800120000 
 H        3.9672970000    -2.1119160000    -1.9548270000 
*
