! RI PBE def2-SVP def2-SVP/J NBO PAL2
% maxcore 2000
% output
    # printlevel mini
    print[ P_Basis ] 0
    print[ P_SCFInfo ] 1
    print[ P_SCFIterInfo ] 1
    print[ P_OrbEn ] 0
    print[ P_Cartesian ] 0
end
*xyz 0 1
 C        1.1474210000    -0.0783580000     0.0417170000 
 C        2.6450970000    -0.0789410000     0.0365340000 
 O        3.1534240000     1.0123150000     0.7468370000 
 C        4.4361250000     0.6094510000     1.1793190000 
 C        4.2883750000    -0.8790510000     1.3473950000 
 C        5.0732680000    -1.7308840000     1.9904440000 
 O        3.1520130000    -1.2359130000     0.6977020000 
 H        0.7787700000     0.8174810000    -0.4597540000 
 H        0.7827170000    -0.0922160000     1.0694340000 
 H        0.7733500000    -0.9560260000    -0.4865930000 
 H        3.0489310000    -0.0815800000    -0.9901300000 
 H        4.6800070000     1.1279200000     2.1061530000 
 H        5.1987970000     0.8459710000     0.4234880000 
 H        5.9472580000    -1.3679780000     2.5129570000 
 H        4.8569460000    -2.7901920000     2.0099960000 
*
