! RI PBE def2-SVP def2-SVP/J NBO PAL2
% maxcore 2000
% output
    # printlevel mini
    print[ P_Basis ] 0
    print[ P_SCFInfo ] 1
    print[ P_SCFIterInfo ] 1
    print[ P_OrbEn ] 0
    print[ P_Cartesian ] 0
end
*xyz 0 1
 C        1.0178700000    -0.0734560000    -0.0349580000 
 C        2.5329190000    -0.0334960000    -0.0056700000 
 O        3.0522570000     0.0246420000    -1.3319990000 
 C        3.1244110000     1.0947680000     0.8431420000 
 C        4.4930400000     0.5372240000     1.1775430000 
 O        4.2622800000    -0.8363390000     1.4322930000 
 C        3.1691870000    -1.2698520000     0.6410220000 
 H        0.6154430000     0.8306550000    -0.5024530000 
 H        0.6041100000    -0.1406070000     0.9734040000 
 H        0.6720210000    -0.9337640000    -0.6124160000 
 H        2.6955130000     0.8093760000    -1.7581050000 
 H        2.5373320000     1.2277730000     1.7563160000 
 H        3.1510840000     2.0443520000     0.3036760000 
 H        4.9459750000     0.9748330000     2.0691230000 
 H        5.1812470000     0.6643470000     0.3313800000 
 H        2.4607420000    -1.7938260000     1.2899530000 
 H        3.5052890000    -1.9546300000    -0.1444520000 
*
