! RI PBE def2-SVP def2-SVP/J NBO PAL2
% maxcore 2000
% output
    # printlevel mini
    print[ P_Basis ] 0
    print[ P_SCFInfo ] 1
    print[ P_SCFIterInfo ] 1
    print[ P_OrbEn ] 0
    print[ P_Cartesian ] 0
end
*xyz 0 1
 C        1.0588970000     0.0645230000     0.3036730000 
 C        2.5373990000     0.0611840000    -0.0185600000 
 O        2.7686620000    -0.0200870000    -1.4044370000 
 C        3.3385150000     1.1646130000     0.7356430000 
 C        3.8562770000     0.0694980000     1.6544470000 
 O        4.3844610000     0.0691610000     2.7250960000 
 C        3.3402000000    -1.0234270000     0.7341130000 
 H        0.5722290000     0.9473910000    -0.1235340000 
 H        0.8877600000     0.0852760000     1.3826640000 
 H        0.5805970000    -0.8278240000    -0.1058070000 
 H        2.2433140000     0.6549370000    -1.8437630000 
 H        2.7970420000     1.9904320000     1.2006410000 
 H        4.1458750000     1.5567490000     0.1106650000 
 H        2.7999480000    -1.8542980000     1.1900240000 
 H        4.1446140000    -1.4133290000     0.1039250000 
*
