! RI PBE def2-SVP def2-SVP/J NBO PAL2
% maxcore 2000
% output
    # printlevel mini
    print[ P_Basis ] 0
    print[ P_SCFInfo ] 1
    print[ P_SCFIterInfo ] 1
    print[ P_OrbEn ] 0
    print[ P_Cartesian ] 0
end
*xyz 0 1
 C        1.0063710000     0.0623550000     0.4388180000 
 C        2.3362050000     0.1359110000    -0.2817930000 
 O        2.1515990000     0.1639320000    -1.6789030000 
 C        3.3041370000     1.1881950000     0.3128630000 
 C        3.9723060000     0.0662510000     1.1075660000 
 O        5.3712800000     0.1636090000     1.1603610000 
 C        3.3351420000    -0.9519950000     0.1420620000 
 H        0.4053450000     0.9543970000     0.2309600000 
 H        1.1408970000     0.0036610000     1.5216430000 
 H        0.4466790000    -0.8167760000     0.1107740000 
 H        1.5084500000     0.8480550000    -1.8871330000 
 H        2.8881790000     2.0379390000     0.8575740000 
 H        3.9890700000     1.5370380000    -0.4621420000 
 H        3.5509870000    -0.0188240000     2.1172330000 
 H        5.7137380000    -0.5865220000     1.6532360000 
 H        2.9371060000    -1.8875550000     0.5401700000 
 H        4.0208890000    -1.1555730000    -0.6823780000 
*
