! RI PBE def2-SVP def2-SVP/J NBO PAL2
% maxcore 2000
% output
    # printlevel mini
    print[ P_Basis ] 0
    print[ P_SCFInfo ] 1
    print[ P_SCFIterInfo ] 1
    print[ P_OrbEn ] 0
    print[ P_Cartesian ] 0
end
*xyz 0 1
 C        0.9386340000     0.2263130000     0.1558000000 
 C        2.3922740000    -0.0722180000    -0.0642740000 
 O        3.2597010000     0.9678090000     0.4964700000 
 C        3.9205300000     0.0633880000     1.2685350000 
 O        4.8414460000     0.2596310000     1.9892870000 
 C        3.0784750000    -1.1196800000     0.8228650000 
 C        3.8144840000    -2.2749390000     0.1829500000 
 H        0.6473260000     1.1402150000    -0.3653760000 
 H        0.7244370000     0.3522510000     1.2194860000 
 H        0.3267210000    -0.5941070000    -0.2277440000 
 H        2.6282730000    -0.1869030000    -1.1257610000 
 H        2.4309910000    -1.4619070000     1.6351090000 
 H        4.4571650000    -1.9318520000    -0.6310210000 
 H        3.1139470000    -3.0094540000    -0.2204090000 
 H        4.4454760000    -2.7769650000     0.9185030000 
*
