! RI PBE def2-SVP def2-SVP/J NBO PAL2
% maxcore 2000
% output
    # printlevel mini
    print[ P_Basis ] 0
    print[ P_SCFInfo ] 1
    print[ P_SCFIterInfo ] 1
    print[ P_OrbEn ] 0
    print[ P_Cartesian ] 0
end
*xyz 0 1
 C        0.9388490000     0.1070810000    -0.0280180000 
 C        2.4404310000     0.0014760000    -0.0382410000 
 O        3.0125820000     1.0508390000     0.7340050000 
 C        4.2520330000     0.5699410000     1.1331340000 
 O        4.0958940000    -0.8222060000     1.3488970000 
 C        3.0254350000    -1.2268410000     0.6164510000 
 C        2.6259560000    -2.4877460000     0.5384970000 
 H        0.6249720000     1.0572590000    -0.4631740000 
 H        0.5609030000     0.0395960000     0.9928650000 
 H        0.5018600000    -0.7001780000    -0.6183380000 
 H        2.8178140000     0.0693680000    -1.0718160000 
 H        4.5502510000     1.0490290000     2.0664300000 
 H        5.0157330000     0.7226950000     0.3541530000 
 H        3.1580740000    -3.2781130000     1.0500040000 
 H        1.7517210000    -2.7425030000    -0.0433390000 
*
