! RI PBE def2-SVP def2-SVP/J NBO PAL2
% maxcore 2000
% output
    # printlevel mini
    print[ P_Basis ] 0
    print[ P_SCFInfo ] 1
    print[ P_SCFIterInfo ] 1
    print[ P_OrbEn ] 0
    print[ P_Cartesian ] 0
end
*xyz 0 1
 C        1.0717610000     0.0136970000    -0.1425060000 
 C        2.3819520000     0.1128310000     0.0612620000 
 O        3.1648990000    -0.9763320000     0.3288150000 
 C        4.4729420000    -0.5565530000     0.4915380000 
 O        5.3558670000    -1.3187170000     0.7339720000 
 C        4.4797300000     0.9037950000     0.3071820000 
 C        3.2275620000     1.2911620000     0.0512930000 
 H        0.5680540000    -0.9424950000    -0.1042890000 
 H        0.4943850000     0.9037030000    -0.3508380000 
 H        5.3794620000     1.4943090000     0.3807270000 
 H        2.8570870000     2.2887990000    -0.1365450000 
*
