! RI PBE def2-SVP def2-SVP/J NBO PAL2
% maxcore 2000
% output
    # printlevel mini
    print[ P_Basis ] 0
    print[ P_SCFInfo ] 1
    print[ P_SCFIterInfo ] 1
    print[ P_OrbEn ] 0
    print[ P_Cartesian ] 0
end
*xyz 0 1
 C        1.9207820000     0.9251420000    -1.0928140000 
 C        2.5698280000     0.2010000000    -0.1918760000 
 C        3.2164170000     0.6949780000     1.0411050000 
 C        4.6262320000     1.1648510000     1.0346680000 
 C        3.5132230000     2.1655800000     1.2466540000 
 C        3.3228000000     2.7042540000     2.6061850000 
 O        3.5825880000     2.1012690000     3.6165020000 
 H        1.4938710000     0.4661100000    -1.9763960000 
 H        1.7842840000     1.9955490000    -0.9829120000 
 H        2.6579940000    -0.8729710000    -0.3466350000 
 H        2.9256150000     0.1845790000     1.9555180000 
 H        5.1398290000     1.2143730000     0.0828710000 
 H        5.2343820000     0.9468210000     1.9040150000 
 H        3.2874780000     2.8424610000     0.4326360000 
 H        2.9079770000     3.7326040000     2.6578880000 
*
