! RI PBE def2-SVP def2-SVP/J NBO PAL2
% maxcore 2000
% output
    # printlevel mini
    print[ P_Basis ] 0
    print[ P_SCFInfo ] 1
    print[ P_SCFIterInfo ] 1
    print[ P_OrbEn ] 0
    print[ P_Cartesian ] 0
end
*xyz 0 1
 C        3.0082590000     0.3183550000     1.3020550000 
 C        2.2305850000    -0.2535390000     0.1267280000 
 C        3.0062820000    -1.3054080000    -0.6187350000 
 C        2.9748980000    -2.7239430000    -0.1963230000 
 C        2.2620070000    -2.3144640000    -1.4680130000 
 C        2.8634600000    -2.7096430000    -2.7469230000 
 O        2.2541880000    -2.9684820000    -3.7506410000 
 H        2.4265500000     1.0785360000     1.8278340000 
 H        3.9393280000     0.7846800000     0.9690670000 
 H        3.2680520000    -0.4635200000     2.0200880000 
 H        1.9561070000     0.5506460000    -0.5640360000 
 H        1.2898870000    -0.6896490000     0.4800570000 
 H        3.9485610000    -0.9625570000    -1.0400940000 
 H        2.3390400000    -2.9999650000     0.6362830000 
 H        3.8725380000    -3.3225900000    -0.2999570000 
 H        1.1789380000    -2.2792120000    -1.4577090000 
 H        3.9784310000    -2.7542450000    -2.7314920000 
*
