! RI PBE def2-SVP def2-SVP/J NBO PAL2
% maxcore 2000
% output
    # printlevel mini
    print[ P_Basis ] 0
    print[ P_SCFInfo ] 1
    print[ P_SCFIterInfo ] 1
    print[ P_OrbEn ] 0
    print[ P_Cartesian ] 0
end
*xyz 0 1
 C        2.3229970000     0.6018080000    -1.0899060000 
 C        1.8565530000    -0.3932480000    -0.0387910000 
 C        2.9287260000    -1.3684970000     0.3624960000 
 C        2.5775980000    -2.6968560000     0.9814850000 
 C        3.1301060000    -2.6456480000    -0.3960930000 
 O        4.4085900000    -3.1505330000    -0.5726580000 
 C        5.0670850000    -2.5710620000    -1.6699790000 
 H        1.5261050000     1.2970940000    -1.3639550000 
 H        2.6485750000     0.0894190000    -1.9992690000 
 H        3.1672060000     1.1925380000    -0.7237790000 
 H        0.9913190000    -0.9511740000    -0.4153480000 
 H        1.5025050000     0.1443310000     0.8483710000 
 H        3.8468270000    -0.9243180000     0.7383640000 
 H        1.5307320000    -2.9484800000     1.1054810000 
 H        3.2370150000    -3.0815350000     1.7492450000 
 H        2.4510100000    -2.8420650000    -1.2278840000 
 H        6.0564780000    -3.0247370000    -1.7325590000 
 H        5.1751700000    -1.4856400000    -1.5477260000 
 H        4.5289030000    -2.7631100000    -2.6081950000 
*
