! RI PBE def2-SVP def2-SVP/J NBO PAL2
% maxcore 2000
% output
    # printlevel mini
    print[ P_Basis ] 0
    print[ P_SCFInfo ] 1
    print[ P_SCFIterInfo ] 1
    print[ P_OrbEn ] 0
    print[ P_Cartesian ] 0
end
*xyz 0 1
 C        1.7324870000    -0.8531530000    -0.0825770000 
 C        2.5920930000     0.3324780000     0.3248950000 
 C        3.0726750000     1.1410940000    -0.8543370000 
 C        2.1813690000     2.1781020000    -1.4405070000 
 C        3.4161390000     2.5892060000    -0.6784620000 
 O        3.8136780000     0.4359910000    -1.8068380000 
 C        5.0966450000     0.0608010000    -1.3728520000 
 H        1.4087920000    -1.4241380000     0.7904940000 
 H        2.2828380000    -1.5255910000    -0.7435410000 
 H        0.8403280000    -0.5227980000    -0.6205750000 
 H        3.4522430000    -0.0106300000     0.9113780000 
 H        2.0289350000     0.9992670000     0.9848120000 
 H        1.2122790000     2.3385790000    -0.9832670000 
 H        2.2069390000     2.2877610000    -2.5170490000 
 H        3.2988840000     3.0377210000     0.3009040000 
 H        4.2435690000     2.9743830000    -1.2616450000 
 H        5.6133540000    -0.3624560000    -2.2347640000 
 H        5.0625650000    -0.6975790000    -0.5809960000 
 H        5.6647980000     0.9241520000    -1.0040840000 
*
