! RI PBE def2-SVP def2-SVP/J NBO PAL2
% maxcore 2000
% output
    # printlevel mini
    print[ P_Basis ] 0
    print[ P_SCFInfo ] 1
    print[ P_SCFIterInfo ] 1
    print[ P_OrbEn ] 0
    print[ P_Cartesian ] 0
end
*xyz 0 1
 C        1.2082560000     0.2940150000    -0.6621770000 
 C        2.5081780000    -0.0677680000     0.0396070000 
 C        3.1393170000    -1.3322460000    -0.4969270000 
 C        4.4056090000    -1.9152440000     0.1643580000 
 C        3.8681610000    -3.3273560000    -0.1345140000 
 C        2.4704790000    -2.6983320000    -0.2391880000 
 O        1.5203120000    -3.2143880000    -1.1274610000 
 H        0.7571050000     1.1896700000    -0.2290380000 
 H        0.4823860000    -0.5194120000    -0.5910350000 
 H        1.3771450000     0.4889650000    -1.7251690000 
 H        2.3262200000    -0.1959350000     1.1137260000 
 H        3.2216260000     0.7600090000    -0.0492690000 
 H        3.3161900000    -1.2370490000    -1.5777000000 
 H        4.4177120000    -1.7085080000     1.2375570000 
 H        5.3726870000    -1.6373370000    -0.2550220000 
 H        4.0279320000    -4.1231640000     0.5939350000 
 H        4.2046630000    -3.6735410000    -1.1167230000 
 H        1.9846100000    -2.6893830000     0.7418690000 
 H        1.9086210000    -3.2303870000    -2.0066370000 
*
