! RI PBE def2-SVP def2-SVP/J NBO PAL2
% maxcore 2000
% output
    # printlevel mini
    print[ P_Basis ] 0
    print[ P_SCFInfo ] 1
    print[ P_SCFIterInfo ] 1
    print[ P_OrbEn ] 0
    print[ P_Cartesian ] 0
end
*xyz 0 1
 C        2.2909550000     1.1043520000     0.5052690000 
 C        2.1966730000     0.0190600000    -0.2500300000 
 C        3.0945710000    -1.1616320000    -0.1832450000 
 C        4.0471620000    -1.4154960000     1.0090680000 
 C        3.6061780000    -2.8972170000     1.0628610000 
 C        2.4722900000    -2.5364170000     0.1136410000 
 O        1.4555450000    -3.0659950000    -0.2109570000 
 H        1.5872660000     1.9214730000     0.4006640000 
 H        3.0718990000     1.2224910000     1.2489140000 
 H        1.3986800000    -0.0549540000    -0.9852150000 
 H        3.6374150000    -1.2698840000    -1.1335520000 
 H        3.7358420000    -0.8686890000     1.8994120000 
 H        5.1043530000    -1.2292280000     0.8282850000 
 H        3.3068030000    -3.3145630000     2.0251620000 
 H        4.3127600000    -3.5836020000     0.5883030000 
*
