! RI PBE def2-SVP def2-SVP/J NBO PAL2
% maxcore 2000
% output
    # printlevel mini
    print[ P_Basis ] 0
    print[ P_SCFInfo ] 1
    print[ P_SCFIterInfo ] 1
    print[ P_OrbEn ] 0
    print[ P_Cartesian ] 0
end
*xyz 0 1
 C        1.8795500000     0.1791060000    -1.7066860000 
 C        2.1774150000     0.1281440000    -0.2175260000 
 C        3.0023910000     1.2552170000     0.3739160000 
 C        3.2286210000     1.0937300000     1.8553580000 
 C        4.1248530000     1.8780000000    -0.4209640000 
 C        2.8621170000     2.6446280000    -0.1560940000 
 O        2.8598820000     3.6945450000     0.7609550000 
 H        1.3031940000    -0.6997310000    -2.0039260000 
 H        2.7920660000     0.1853820000    -2.3075420000 
 H        1.2902210000     1.0575150000    -1.9796670000 
 H        2.6966340000    -0.8116710000     0.0071820000 
 H        1.2307210000     0.0840350000     0.3345700000 
 H        3.7956560000     0.1797020000     2.0553550000 
 H        2.2746400000     1.0193500000     2.3859350000 
 H        3.7729110000     1.9397200000     2.2734240000 
 H        4.3222450000     1.5441760000    -1.4325810000 
 H        5.0030370000     2.1771150000     0.1399910000 
 H        2.1909760000     2.7907190000    -0.9995030000 
 H        3.3317780000     4.4335100000     0.3684030000 
*
