! RI PBE def2-SVP def2-SVP/J NBO PAL2
% maxcore 2000
% output
    # printlevel mini
    print[ P_Basis ] 0
    print[ P_SCFInfo ] 1
    print[ P_SCFIterInfo ] 1
    print[ P_OrbEn ] 0
    print[ P_Cartesian ] 0
end
*xyz 0 1
 C        0.6611850000    -0.1618180000    -0.2181360000 
 C        2.1683030000    -0.0363360000    -0.0481770000 
 C        3.0095540000    -1.1044840000    -0.7261560000 
 C        3.3890610000    -2.4086450000    -0.0508840000 
 C        2.9034000000    -2.7485690000     1.3283100000 
 C        2.4675430000    -2.4175720000    -1.2129550000 
 O        2.9510710000    -2.9689240000    -2.3989640000 
 H        0.1502340000     0.6851780000     0.2460300000 
 H        0.2670390000    -1.0708520000     0.2431990000 
 H        0.3812970000    -0.1827380000    -1.2746810000 
 H        2.4065040000    -0.0017560000     1.0208820000 
 H        2.4784060000     0.9345620000    -0.4453090000 
 H        3.7997060000    -0.7195060000    -1.3633050000 
 H        4.3913090000    -2.7533080000    -0.2856440000 
 H        3.5270300000    -2.2816180000     2.0958760000 
 H        2.9256040000    -3.8289640000     1.4933930000 
 H        1.8771570000    -2.4116680000     1.4919050000 
 H        1.4213190000    -2.6359020000    -1.0037620000 
 H        2.5946070000    -2.4614710000    -3.1331220000 
*
