! RI PBE def2-SVP def2-SVP/J NBO PAL2
% maxcore 2000
% output
    # printlevel mini
    print[ P_Basis ] 0
    print[ P_SCFInfo ] 1
    print[ P_SCFIterInfo ] 1
    print[ P_OrbEn ] 0
    print[ P_Cartesian ] 0
end
*xyz 0 1
 C        0.9960300000     0.3326110000    -0.1332170000 
 C        2.4779280000     0.0342170000     0.0297330000 
 C        3.0183910000    -0.8835230000    -1.0480960000 
 C        4.4998950000    -1.3420200000    -1.0216720000 
 C        4.0712770000    -2.7948050000    -1.3325050000 
 C        2.6456620000    -2.3665600000    -1.0106970000 
 O        1.6552030000    -2.9619270000    -0.7073930000 
 H        0.6353030000     0.9818300000     0.6675730000 
 H        0.4104470000    -0.5882050000    -0.1157890000 
 H        0.7997590000     0.8366960000    -1.0838430000 
 H        2.6583760000    -0.4250950000     1.0082340000 
 H        3.0536740000     0.9664000000     0.0171550000 
 H        2.7643500000    -0.4921300000    -2.0421300000 
 H        4.9291700000    -1.2482430000    -0.0224960000 
 H        5.1666280000    -0.8661560000    -1.7394010000 
 H        4.4799920000    -3.6065060000    -0.7291810000 
 H        4.1730150000    -3.0566730000    -2.3892860000 
*
