! RI PBE def2-SVP def2-SVP/J NBO PAL2
% maxcore 2000
% output
    # printlevel mini
    print[ P_Basis ] 0
    print[ P_SCFInfo ] 1
    print[ P_SCFIterInfo ] 1
    print[ P_OrbEn ] 0
    print[ P_Cartesian ] 0
end
*xyz 0 1
 C        3.6006600000    -0.5704880000    -0.7943180000 
 C        2.4267950000     0.0436470000    -0.0370590000 
 C        2.7797980000     1.2763980000     0.7063720000 
 C        2.3923050000     2.5727750000     0.6045180000 
 C        3.1028150000     3.2925860000     1.6122410000 
 C        3.8685230000     2.3790000000     2.2492340000 
 O        3.6839290000     1.1509240000     1.7113110000 
 H        3.2924550000    -1.4816550000    -1.3116460000 
 H        4.4124160000    -0.8274460000    -0.1115090000 
 H        3.9940530000     0.1274640000    -1.5364990000 
 H        2.0181510000    -0.6942100000     0.6628490000 
 H        1.6205170000     0.2959600000    -0.7299150000 
 H        1.6821010000     2.9677240000    -0.1048600000 
 H        3.0483190000     4.3472070000     1.8304380000 
 H        4.5664440000     2.4377350000     3.0678420000 
*
