! RI PBE def2-SVP def2-SVP/J NBO PAL2
% maxcore 2000
% output
    # printlevel mini
    print[ P_Basis ] 0
    print[ P_SCFInfo ] 1
    print[ P_SCFIterInfo ] 1
    print[ P_OrbEn ] 0
    print[ P_Cartesian ] 0
end
*xyz 0 1
 C        1.0726960000    -0.1063730000    -0.0328030000 
 C        2.2733300000    -0.0348430000    -0.0294620000 
 C        3.6748390000     0.0705970000    -0.0259750000 
 C        4.5127730000     1.1465110000    -0.0265700000 
 C        5.8329190000     0.6251010000    -0.0216390000 
 C        5.7008250000    -0.7243340000    -0.0184210000 
 O        4.4030320000    -1.0797390000    -0.0209850000 
 H        0.0104770000    -0.1720580000    -0.0359430000 
 H        4.2080880000     2.1804190000    -0.0301250000 
 H        6.7577600000     1.1791450000    -0.0206150000 
 H        6.4113620000    -1.5344260000    -0.0143630000 
*
