! RI PBE def2-SVP def2-SVP/J NBO PAL2
% maxcore 2000
% output
    # printlevel mini
    print[ P_Basis ] 0
    print[ P_SCFInfo ] 1
    print[ P_SCFIterInfo ] 1
    print[ P_OrbEn ] 0
    print[ P_Cartesian ] 0
end
*xyz 0 1
 C        2.5344930000    -1.5640810000    -0.1287900000 
 C        2.4892220000    -0.0458570000    -0.1147560000 
 C        2.9280900000     0.5786220000    -1.4217390000 
 C        2.8893120000     2.0988440000    -1.4600910000 
 C        3.9343600000     2.4127390000    -2.5208530000 
 C        4.9783090000     1.3368310000    -2.2515100000 
 O        4.2850610000     0.2323930000    -1.6902360000 
 H        2.2218480000    -1.9784970000     0.8322820000 
 H        3.5452180000    -1.9175190000    -0.3396660000 
 H        1.8711530000    -1.9703020000    -0.8978510000 
 H        3.1323760000     0.3434430000     0.6822010000 
 H        1.4711310000     0.2981720000     0.1012430000 
 H        2.3004740000     0.1774160000    -2.2353220000 
 H        3.1933870000     2.5006310000    -0.4876460000 
 H        1.8970780000     2.4876200000    -1.6945760000 
 H        4.3428700000     3.4219950000    -2.4502750000 
 H        3.5069750000     2.2905870000    -3.5199860000 
 H        5.7327100000     1.6874850000    -1.5356490000 
 H        5.4982630000     1.0119570000    -3.1577910000 
*
