! RI PBE def2-SVP def2-SVP/J NBO PAL2
% maxcore 2000
% output
    # printlevel mini
    print[ P_Basis ] 0
    print[ P_SCFInfo ] 1
    print[ P_SCFIterInfo ] 1
    print[ P_OrbEn ] 0
    print[ P_Cartesian ] 0
end
*xyz 0 1
 C        0.5878500000     0.5678590000    -0.1126990000 
 C        1.8711280000     0.8655370000     0.0781600000 
 C        2.8314560000    -0.0198470000     0.6972020000 
 C        4.1310200000     0.1884440000     0.9305460000 
 C        4.7185700000    -1.0169940000     1.5951480000 
 C        3.4919580000    -1.9425330000     1.6861450000 
 O        2.3826960000    -1.2367900000     1.1088550000 
 H       -0.0860650000     1.2730480000    -0.5831210000 
 H        0.1832680000    -0.3879280000     0.1975090000 
 H        2.2682580000     1.8257110000    -0.2357790000 
 H        4.6693090000     1.0890840000     0.6773420000 
 H        5.1345760000    -0.7883110000     2.5819680000 
 H        5.5278100000    -1.4643950000     1.0085720000 
 H        3.2292760000    -2.1925110000     2.7163950000 
 H        3.6241810000    -2.8716450000     1.1273570000 
*
