! RI PBE def2-SVP def2-SVP/J NBO PAL2
% maxcore 2000
% output
    # printlevel mini
    print[ P_Basis ] 0
    print[ P_SCFInfo ] 1
    print[ P_SCFIterInfo ] 1
    print[ P_OrbEn ] 0
    print[ P_Cartesian ] 0
end
*xyz 0 1
 C        3.0023040000     0.9256750000     0.7812050000 
 C        2.3846760000    -0.0954970000     0.2070390000 
 C        2.8858270000    -0.7980620000    -1.0042140000 
 C        3.2155770000    -2.2907650000    -0.7940650000 
 C        2.6015800000    -2.9090870000    -2.0175370000 
 C        1.8579050000    -1.9891780000    -2.6170300000 
 O        1.8726140000    -0.7620700000    -2.0389100000 
 H        2.6196160000     1.3876540000     1.6835750000 
 H        3.9183300000     1.3359760000     0.3674170000 
 H        1.4626560000    -0.4902140000     0.6287570000 
 H        3.7600850000    -0.2717550000    -1.4042500000 
 H        2.7633850000    -2.6795250000     0.1268010000 
 H        4.2936440000    -2.4446580000    -0.7111030000 
 H        2.6944270000    -3.9410730000    -2.3186580000 
 H        1.2284930000    -2.0701110000    -3.4929260000 
*
