! RI PBE def2-SVP def2-SVP/J NBO PAL2
% maxcore 2000
% output
    # printlevel mini
    print[ P_Basis ] 0
    print[ P_SCFInfo ] 1
    print[ P_SCFIterInfo ] 1
    print[ P_OrbEn ] 0
    print[ P_Cartesian ] 0
end
*xyz 0 1
 C        0.9815220000    -0.1344140000     0.1418640000 
 C        2.1696330000    -0.0442970000    -0.0045020000 
 C        3.6114650000     0.0890390000    -0.1900170000 
 C        4.2239140000     1.2133610000     0.6722880000 
 C        5.5116860000     0.5823670000     1.1874430000 
 C        5.1012320000    -0.8730600000     1.2976360000 
 O        4.2973500000    -1.1113320000     0.1566360000 
 H       -0.0710480000    -0.2255170000     0.2707360000 
 H        3.8032780000     0.2694500000    -1.2541470000 
 H        3.5529660000     1.4495560000     1.5001300000 
 H        4.3798750000     2.1244240000     0.0946300000 
 H        5.8443400000     1.0095270000     2.1347740000 
 H        6.3185470000     0.6882370000     0.4576560000 
 H        4.5284910000    -1.0517640000     2.2189340000 
 H        5.9354190000    -1.5760680000     1.2664490000 
*
