! RI PBE def2-SVP def2-SVP/J NBO PAL2
% maxcore 2000
% output
    # printlevel mini
    print[ P_Basis ] 0
    print[ P_SCFInfo ] 1
    print[ P_SCFIterInfo ] 1
    print[ P_OrbEn ] 0
    print[ P_Cartesian ] 0
end
*xyz 0 1
 C        0.9398960000     0.1258230000     0.0769980000 
 C        2.1393690000     0.0696680000     0.0362910000 
 C        3.5530020000     0.0007010000    -0.0111000000 
 C        4.3404200000    -1.0704210000     0.1017780000 
 C        5.7696280000    -0.6384380000    -0.0119450000 
 C        5.6194700000     0.8800810000    -0.2162830000 
 O        4.2126220000     1.1789580000    -0.1959000000 
 H       -0.1227260000     0.1742920000     0.1133650000 
 H        3.9947460000    -2.0809080000     0.2521470000 
 H        6.2804390000    -1.1185690000    -0.8525750000 
 H        6.3455200000    -0.8784290000     0.8875310000 
 H        6.0150190000     1.2162200000    -1.1768320000 
 H        6.0923940000     1.4608420000     0.5780370000 
*
