! RI PBE def2-SVP def2-SVP/J NBO PAL2
% maxcore 2000
% output
    # printlevel mini
    print[ P_Basis ] 0
    print[ P_SCFInfo ] 1
    print[ P_SCFIterInfo ] 1
    print[ P_OrbEn ] 0
    print[ P_Cartesian ] 0
end
*xyz 0 1
 C        1.0751590000     0.1675300000    -0.0976890000 
 C        2.5464870000    -0.0936520000    -0.0307940000 
 C        3.1291870000    -0.6251860000     1.0356030000 
 C        2.5157960000    -1.0644850000     2.3393000000 
 C        3.7206030000    -1.5609790000     3.0805110000 
 C        4.7754950000    -1.4042280000     2.2928720000 
 O        4.4929380000    -0.8575390000     1.0739680000 
 H        0.7985430000     0.6062180000    -1.0566630000 
 H        0.7438300000     0.8598800000     0.6843260000 
 H        0.4881800000    -0.7500200000     0.0216110000 
 H        3.1697610000     0.1576370000    -0.8816250000 
 H        1.7547510000    -1.8399180000     2.1858610000 
 H        2.0098550000    -0.2337170000     2.8471190000 
 H        3.7286980000    -1.9726160000     4.0772350000 
 H        5.8184270000    -1.6353160000     2.4518850000 
*
