! RI PBE def2-SVP def2-SVP/J NBO PAL2
% maxcore 2000
% output
    # printlevel mini
    print[ P_Basis ] 0
    print[ P_SCFInfo ] 1
    print[ P_SCFIterInfo ] 1
    print[ P_OrbEn ] 0
    print[ P_Cartesian ] 0
end
*xyz 0 1
 C        0.9698490000     0.1842880000     0.1081690000 
 C        2.4818670000     0.0695960000     0.0307870000 
 C        3.2216940000     0.3392720000     1.3325090000 
 C        4.7003270000     0.0605310000     1.1865350000 
 C        2.8795600000     1.6520740000     2.0660060000 
 C        2.3015390000     0.7423050000     3.1473970000 
 O        2.6634200000    -0.4390890000     2.4242520000 
 H        0.5140420000    -0.0877930000    -0.8461930000 
 H        0.6437070000     1.2007210000     0.3434440000 
 H        0.5743300000    -0.4855020000     0.8737100000 
 H        2.8787910000     0.7520200000    -0.7298630000 
 H        2.7497210000    -0.9424090000    -0.2939920000 
 H        5.1400050000     0.7029280000     0.4184570000 
 H        4.8629850000    -0.9810750000     0.8984470000 
 H        5.2213140000     0.2395250000     2.1291940000 
 H        2.1653410000     2.3027230000     1.5631490000 
 H        3.7494300000     2.2370860000     2.3641400000 
 H        1.2181940000     0.8131610000     3.2922750000 
 H        2.7935850000     0.7882680000     4.1242860000 
*
