! RI PBE def2-SVP def2-SVP/J NBO PAL2
% maxcore 2000
% output
    # printlevel mini
    print[ P_Basis ] 0
    print[ P_SCFInfo ] 1
    print[ P_SCFIterInfo ] 1
    print[ P_OrbEn ] 0
    print[ P_Cartesian ] 0
end
*xyz 0 1
 C        2.2859560000     1.3023010000    -1.5577050000 
 C        2.2609990000     0.6979810000    -0.1654720000 
 C        3.5218830000     0.8715990000     0.6493750000 
 C        3.4851650000     0.2949880000     2.0442390000 
 C        2.5598220000     1.0369380000     2.9972710000 
 C        4.4823560000     1.9377410000     0.3653560000 
 O        4.7353670000     0.6052680000    -0.0536790000 
 H        1.4060700000     0.9909910000    -2.1241810000 
 H        3.1722530000     0.9776070000    -2.1062110000 
 H        2.2825430000     2.3942680000    -1.5271180000 
 H        2.0779770000    -0.3811460000    -0.2380920000 
 H        1.4207560000     1.1077850000     0.4039710000 
 H        4.5076770000     0.3048710000     2.4315860000 
 H        3.1879130000    -0.7579840000     1.9785520000 
 H        2.6189030000     0.6124440000     4.0016870000 
 H        2.8301920000     2.0940340000     3.0666020000 
 H        1.5157640000     0.9807530000     2.6814350000 
 H        5.1232390000     2.3007090000     1.1669050000 
 H        4.2991530000     2.6473620000    -0.4367320000 
*
