! RI PBE def2-SVP def2-SVP/J NBO PAL2
% maxcore 2000
% output
    # printlevel mini
    print[ P_Basis ] 0
    print[ P_SCFInfo ] 1
    print[ P_SCFIterInfo ] 1
    print[ P_OrbEn ] 0
    print[ P_Cartesian ] 0
end
*xyz 0 1
 C        1.8206490000     1.2429120000    -0.6903920000 
 C        2.5173680000     0.0285730000    -0.1027550000 
 C        2.9215840000    -0.9997680000    -1.1365420000 
 C        3.6261830000    -2.2418070000    -0.5531930000 
 C        2.7596570000    -3.3601910000    -1.0536990000 
 C        1.7444530000    -2.8360390000    -1.7267930000 
 O        1.7376940000    -1.4855200000    -1.8174620000 
 H        1.5422720000     1.9537150000     0.0905780000 
 H        0.9133280000     0.9510480000    -1.2219220000 
 H        2.4699320000     1.7647190000    -1.3992230000 
 H        1.8718440000    -0.4642270000     0.6328790000 
 H        3.4240650000     0.3337700000     0.4319670000 
 H        3.5384470000    -0.5251070000    -1.9080430000 
 H        3.6574610000    -2.2013030000     0.5424530000 
 H        4.6612340000    -2.3197910000    -0.8982130000 
 H        2.9202120000    -4.4119400000    -0.8740780000 
 H        0.9129170000    -3.3271430000    -2.2143530000 
*
