! RI PBE def2-SVP def2-SVP/J NBO PAL2
% maxcore 2000
% output
    # printlevel mini
    print[ P_Basis ] 0
    print[ P_SCFInfo ] 1
    print[ P_SCFIterInfo ] 1
    print[ P_OrbEn ] 0
    print[ P_Cartesian ] 0
end
*xyz 0 1
 C        2.4096700000    -1.1028140000     1.0343300000 
 C        2.3110620000     0.0555840000     0.0567780000 
 C        3.3063840000     1.1506360000     0.3555630000 
 C        3.1287340000     2.4808950000    -0.3834470000 
 C        2.8313600000     3.0616700000     1.0040920000 
 C        3.7424760000     4.1385810000     1.5284350000 
 O        3.0681060000     1.7850160000     1.6288780000 
 H        1.6571430000    -1.8660780000     0.8252170000 
 H        2.2622030000    -0.7518610000     2.0577540000 
 H        3.3923770000    -1.5801050000     0.9824960000 
 H        1.3028590000     0.4843800000     0.0794400000 
 H        2.4854280000    -0.2912550000    -0.9690280000 
 H        4.3258040000     0.7439730000     0.3223870000 
 H        2.3050740000     2.5064290000    -1.0976080000 
 H        4.0296970000     2.8757860000    -0.8537430000 
 H        1.7837720000     3.3592910000     1.1391800000 
 H        4.7902000000     3.8624510000     1.3870340000 
 H        3.5702310000     4.2979140000     2.5954760000 
 H        3.5557110000     5.0820190000     1.0073570000 
*
