! RI PBE def2-SVP def2-SVP/J NBO PAL2
% maxcore 2000
% output
    # printlevel mini
    print[ P_Basis ] 0
    print[ P_SCFInfo ] 1
    print[ P_SCFIterInfo ] 1
    print[ P_OrbEn ] 0
    print[ P_Cartesian ] 0
end
*xyz 0 1
 C        3.5046900000    -0.5269650000    -0.8865720000 
 C        2.3736830000     0.0651840000    -0.0525330000 
 C        2.8241280000     1.1533380000     0.8635680000 
 C        2.4729360000     2.4619860000     0.8250800000 
 O        3.0862760000     3.1630030000     1.8076120000 
 C        3.8488560000     2.2847880000     2.4918650000 
 C        3.7338390000     1.0443710000     1.9657610000 
 H        3.1366220000    -1.3264600000    -1.5338190000 
 H        4.2876270000    -0.9458980000    -0.2500290000 
 H        3.9654620000     0.2373670000    -1.5162690000 
 H        1.9035370000    -0.7311570000     0.5350340000 
 H        1.5948270000     0.4560680000    -0.7136320000 
 H        1.8161910000     3.0243270000     0.1811010000 
 H        4.4085930000     2.6874290000     3.3199740000 
 H        4.2307320000     0.1534980000     2.3179680000 
*
