! RI PBE def2-SVP def2-SVP/J NBO PAL2
% maxcore 2000
% output
    # printlevel mini
    print[ P_Basis ] 0
    print[ P_SCFInfo ] 1
    print[ P_SCFIterInfo ] 1
    print[ P_OrbEn ] 0
    print[ P_Cartesian ] 0
end
*xyz 0 1
 C        0.8763460000    -0.0101670000     0.0683200000 
 C        2.0786310000    -0.0238320000     0.0707660000 
 C        3.4909980000    -0.0594310000     0.0738400000 
 C        4.3384450000     1.0075350000     0.0752120000 
 O        5.6174890000     0.5956370000     0.0781330000 
 C        5.6037220000    -0.7580910000     0.0787070000 
 C        4.3359670000    -1.2203670000     0.0762310000 
 H       -0.1876140000     0.0060300000     0.0663050000 
 H        4.1685770000     2.0711120000     0.0743720000 
 H        6.5665970000    -1.2408130000     0.0809850000 
 H        4.0157420000    -2.2493020000     0.0760280000 
*
