! RI PBE def2-SVP def2-SVP/J NBO PAL2
% maxcore 2000
% output
    # printlevel mini
    print[ P_Basis ] 0
    print[ P_SCFInfo ] 1
    print[ P_SCFIterInfo ] 1
    print[ P_OrbEn ] 0
    print[ P_Cartesian ] 0
end
*xyz 0 1
 C        1.9215350000     1.1689150000    -0.3269830000 
 C        2.5736500000     0.0872360000     0.0760210000 
 C        3.3019850000    -0.8584440000    -0.8125200000 
 C        4.7719660000    -1.0780870000    -0.4462500000 
 C        5.0705720000    -2.4010130000    -1.1288220000 
 O        3.8588260000    -3.1407760000    -1.1060070000 
 C        2.7826590000    -2.2954760000    -0.7416980000 
 H        1.4091680000     1.8171930000     0.3741540000 
 H        1.8778900000     1.4453690000    -1.3760490000 
 H        2.5932500000    -0.1565810000     1.1381440000 
 H        3.2404550000    -0.5061590000    -1.8480030000 
 H        4.8718390000    -1.1725050000     0.6397420000 
 H        5.4196070000    -0.2654180000    -0.7779910000 
 H        5.8474520000    -2.9805720000    -0.6227050000 
 H        5.3846910000    -2.2460020000    -2.1696990000 
 H        2.4518810000    -2.5331100000     0.2794360000 
 H        1.9425430000    -2.4692500000    -1.4195590000 
*
