! RI PBE def2-SVP def2-SVP/J NBO PAL2
% maxcore 2000
% output
    # printlevel mini
    print[ P_Basis ] 0
    print[ P_SCFInfo ] 1
    print[ P_SCFIterInfo ] 1
    print[ P_OrbEn ] 0
    print[ P_Cartesian ] 0
end
*xyz 0 1
 C        0.9027810000    -0.0479660000    -0.1133050000 
 C        2.1033510000    -0.0273840000    -0.1002780000 
 C        3.5514910000    -0.0135690000    -0.0694270000 
 C        4.1712210000     1.1117210000     0.7690470000 
 C        5.5616900000     0.5616770000     1.0834130000 
 O        5.5106240000    -0.8459370000     0.8762090000 
 C        4.1854880000    -1.2335470000     0.6016200000 
 H       -0.1612250000    -0.0645280000    -0.1285060000 
 H        3.9320180000     0.0488190000    -1.0953520000 
 H        3.5835360000     1.2451880000     1.6795880000 
 H        4.1978100000     2.0646710000     0.2404580000 
 H        5.8590870000     0.7743900000     2.1155600000 
 H        6.3275520000     0.9722820000     0.4179240000 
 H        3.6369120000    -1.4795690000     1.5219180000 
 H        4.2073530000    -2.1158480000    -0.0401700000 
*
