! RI PBE def2-SVP def2-SVP/J NBO PAL2
% maxcore 2000
% output
    # printlevel mini
    print[ P_Basis ] 0
    print[ P_SCFInfo ] 1
    print[ P_SCFIterInfo ] 1
    print[ P_OrbEn ] 0
    print[ P_Cartesian ] 0
end
*xyz 0 1
 C        1.0499400000    -0.2346920000     0.0465120000 
 C        2.5640180000    -0.0630290000     0.1377740000 
 C        3.0298570000     0.4352320000     1.4625850000 
 C        3.8436110000    -0.1543740000     2.3295050000 
 C        4.0487050000     0.7126160000     3.5241350000 
 O        3.2741560000     1.8741640000     3.2745290000 
 C        2.6215840000     1.7641660000     2.0243310000 
 H        0.7635670000    -0.6235750000    -0.9329630000 
 H        0.5277770000     0.7138770000     0.1904840000 
 H        0.6897600000    -0.9320020000     0.8064300000 
 H        2.8886140000     0.6384980000    -0.6412310000 
 H        3.0578710000    -1.0142770000    -0.0780420000 
 H        4.3113510000    -1.1235640000     2.2069250000 
 H        5.1027940000     0.9924580000     3.6654450000 
 H        3.7116010000     0.2355760000     4.4558790000 
 H        2.9237590000     2.5943350000     1.3673700000 
 H        1.5342460000     1.8426810000     2.1664420000 
*
