! RI PBE def2-SVP def2-SVP/J NBO PAL2
% maxcore 2000
% output
    # printlevel mini
    print[ P_Basis ] 0
    print[ P_SCFInfo ] 1
    print[ P_SCFIterInfo ] 1
    print[ P_OrbEn ] 0
    print[ P_Cartesian ] 0
end
*xyz 0 1
 C        2.6219790000    -0.4943280000     1.5139030000 
 C        2.4131850000    -0.0799870000     0.0663240000 
 C        2.9298500000    -1.0391310000    -1.0032340000 
 C        2.6475660000    -0.4886810000    -2.3859580000 
 C        4.3631090000    -1.5560030000    -0.7781980000 
 O        3.8921520000    -2.8597140000    -0.4184770000 
 C        2.5525110000    -2.5172160000    -0.7912290000 
 H        2.2155600000     0.2642470000     2.1864450000 
 H        3.6796030000    -0.6142770000     1.7583930000 
 H        2.1236630000    -1.4377560000     1.7470370000 
 H        2.8870630000     0.8951360000    -0.1008930000 
 H        1.3421780000     0.0760820000    -0.1124700000 
 H        3.1322350000     0.4820690000    -2.5265480000 
 H        1.5735480000    -0.3457100000    -2.5378440000 
 H        3.0113060000    -1.1629600000    -3.1650240000 
 H        4.9402770000    -1.0907110000     0.0271070000 
 H        4.9773180000    -1.5834900000    -1.6866680000 
 H        1.8347590000    -2.7394640000     0.0047320000 
 H        2.2414500000    -3.0358950000    -1.7063980000 
*
