! RI PBE def2-SVP def2-SVP/J NBO PAL2
% maxcore 2000
% output
    # printlevel mini
    print[ P_Basis ] 0
    print[ P_SCFInfo ] 1
    print[ P_SCFIterInfo ] 1
    print[ P_OrbEn ] 0
    print[ P_Cartesian ] 0
end
*xyz 0 1
 C        1.4722630000     0.3083700000    -0.9442520000 
 C        2.4877640000    -0.0923000000     0.1123770000 
 C        3.2258310000    -1.3691980000    -0.2263730000 
 C        4.1926180000    -1.9397710000     0.8426820000 
 C        3.5367660000    -3.2971980000     0.6341760000 
 O        3.8345490000    -4.4138070000     0.9326440000 
 C        2.4147680000    -2.6930490000    -0.1984910000 
 H        0.9472400000     1.2247520000    -0.6662060000 
 H        0.7210690000    -0.4731480000    -1.0883340000 
 H        1.9560630000     0.4821640000    -1.9094190000 
 H        1.9860350000    -0.2217280000     1.0796320000 
 H        3.2148650000     0.7155420000     0.2522720000 
 H        3.7392800000    -1.2604550000    -1.1862450000 
 H        3.9863420000    -1.5529080000     1.8463740000 
 H        5.2677200000    -1.8894050000     0.6625810000 
 H        1.4928670000    -2.6106220000     0.3876720000 
 H        2.1866500000    -3.1970270000    -1.1389090000 
*
