! RI PBE def2-SVP def2-SVP/J NBO PAL2
% maxcore 2000
% output
    # printlevel mini
    print[ P_Basis ] 0
    print[ P_SCFInfo ] 1
    print[ P_SCFIterInfo ] 1
    print[ P_OrbEn ] 0
    print[ P_Cartesian ] 0
end
*xyz 0 1
 C        1.0984730000     0.3208270000    -0.0299080000 
 C        2.5867670000     0.0271100000     0.0669090000 
 C        3.0891960000    -0.8622500000    -1.0474490000 
 C        4.5489540000    -1.3615540000    -1.0005770000 
 C        4.0733700000    -2.7331930000    -1.4918450000 
 O        4.2563230000    -2.8074870000    -2.8899000000 
 C        2.6407190000    -2.3413350000    -1.0779670000 
 H        0.7591880000     0.9537830000     0.7933020000 
 H        0.5114250000    -0.6015360000    -0.0020740000 
 H        0.8593640000     0.8347510000    -0.9652220000 
 H        2.8074550000    -0.4514600000     1.0294710000 
 H        3.1506380000     0.9674210000     0.0579890000 
 H        2.8884750000    -0.3957710000    -2.0164650000 
 H        4.9238850000    -1.4110780000     0.0250920000 
 H        5.2870530000    -0.8654550000    -1.6320180000 
 H        4.5046770000    -3.6131910000    -0.9998020000 
 H        3.7664740000    -3.5668040000    -3.2165970000 
 H        2.4013570000    -2.7066040000    -0.0744800000 
 H        1.8378180000    -2.6276850000    -1.7612380000 
*
