! RI PBE def2-SVP def2-SVP/J NBO PAL2
% maxcore 2000
% output
    # printlevel mini
    print[ P_Basis ] 0
    print[ P_SCFInfo ] 1
    print[ P_SCFIterInfo ] 1
    print[ P_OrbEn ] 0
    print[ P_Cartesian ] 0
end
*xyz 0 1
 C        1.5614010000     0.2710250000    -1.0341870000 
 C        2.4840490000    -0.0966840000     0.1154810000 
 C        3.3847140000    -1.2574640000    -0.2055290000 
 C        4.1518970000    -1.9174000000     0.9397990000 
 C        3.2955980000    -3.1219870000     0.6048120000 
 O        3.1565840000    -4.2343360000     0.9875950000 
 O        2.6315570000    -2.5011410000    -0.4084540000 
 H        0.9125210000     1.1062990000    -0.7647560000 
 H        0.9276860000    -0.5747690000    -1.3077780000 
 H        2.1313200000     0.5637680000    -1.9201260000 
 H        1.8998820000    -0.3441720000     1.0085590000 
 H        3.1215040000     0.7542840000     0.3814480000 
 H        3.9850870000    -1.0659380000    -1.0987740000 
 H        3.9705480000    -1.5058120000     1.9329580000 
 H        5.2192620000    -2.0765740000     0.7919610000 
*
