! RI PBE def2-SVP def2-SVP/J NBO PAL2
% maxcore 2000
% output
    # printlevel mini
    print[ P_Basis ] 0
    print[ P_SCFInfo ] 1
    print[ P_SCFIterInfo ] 1
    print[ P_OrbEn ] 0
    print[ P_Cartesian ] 0
end
*xyz 0 1
 C        3.0910080000    -1.3088020000    -0.0632720000 
 C        2.4444130000     0.0359790000     0.2277800000 
 C        3.0746170000     1.1755420000    -0.5405410000 
 C        2.6668360000     2.6082620000    -0.1868330000 
 O        4.0325820000     3.0088790000    -0.0242490000 
 C        4.4849050000     1.6459860000    -0.1410080000 
 C        5.6189320000     1.4959370000    -1.1163070000 
 H        2.6142770000    -2.1114680000     0.5034890000 
 H        4.1520710000    -1.3046020000     0.2012610000 
 H        3.0168630000    -1.5611460000    -1.1246820000 
 H        2.5066780000     0.2533870000     1.3006440000 
 H        1.3757530000    -0.0098990000    -0.0116380000 
 H        3.0148920000     0.9868420000    -1.6171830000 
 H        2.1058210000     2.6891810000     0.7532150000 
 H        2.1570770000     3.1923300000    -0.9586150000 
 H        4.7799710000     1.2624030000     0.8475030000 
 H        5.3273980000     1.8594910000    -2.1043330000 
 H        5.9139270000     0.4463480000    -1.2012670000 
 H        6.4877880000     2.0681500000    -0.7821740000 
*
