! RI PBE def2-SVP def2-SVP/J NBO PAL2
% maxcore 2000
% output
    # printlevel mini
    print[ P_Basis ] 0
    print[ P_SCFInfo ] 1
    print[ P_SCFIterInfo ] 1
    print[ P_OrbEn ] 0
    print[ P_Cartesian ] 0
end
*xyz 0 1
 C        1.1184400000     0.1475920000     0.3910410000 
 C        2.5500700000     0.1565890000     0.9069660000 
 C        3.4843980000     1.0124550000     0.0876070000 
 C        3.7796600000     0.5130040000    -1.3002070000 
 O        4.6360940000     1.4900810000     0.7876540000 
 C        3.6635500000     2.4423110000     0.3724660000 
 C        2.9521740000     3.2194400000     1.4360170000 
 H        0.4805450000    -0.4689550000     1.0278050000 
 H        1.0546780000    -0.2546080000    -0.6224040000 
 H        0.6979490000     1.1564930000     0.3751200000 
 H        2.9487010000    -0.8644070000     0.9167410000 
 H        2.5762050000     0.5000310000     1.9425200000 
 H        2.8735800000     0.4707830000    -1.9091920000 
 H        4.2057130000    -0.4934890000    -1.2584150000 
 H        4.4978670000     1.1676580000    -1.7953710000 
 H        3.9988100000     3.0528420000    -0.4684930000 
 H        2.5868530000     2.5800720000     2.2388910000 
 H        2.1047440000     3.7607380000     1.0065200000 
 H        3.6296580000     3.9567810000     1.8746460000 
*
