! RI PBE def2-SVP def2-SVP/J NBO PAL2
% maxcore 2000
% output
    # printlevel mini
    print[ P_Basis ] 0
    print[ P_SCFInfo ] 1
    print[ P_SCFIterInfo ] 1
    print[ P_OrbEn ] 0
    print[ P_Cartesian ] 0
end
*xyz 0 1
 C        1.9983070000     1.2375500000     0.1309290000 
 C        2.7053150000     0.1314770000     0.3101220000 
 C        3.3421620000    -0.6402070000    -0.7869410000 
 C        4.7763710000    -1.1474630000    -0.5949820000 
 O        4.3287750000    -2.5252000000    -0.7141530000 
 C        3.0303850000    -2.1411710000    -0.8536790000 
 O        2.0770490000    -2.8299020000    -0.9762820000 
 H        1.5448100000     1.7584960000     0.9655580000 
 H        1.8422880000     1.6583250000    -0.8572430000 
 H        2.8357510000    -0.2667230000     1.3143910000 
 H        3.1712970000    -0.1652760000    -1.7553620000 
 H        5.2100260000    -0.9681600000     0.3893600000 
 H        5.4869630000    -0.9002450000    -1.3833280000 
*
