! RI PBE def2-SVP def2-SVP/J NBO PAL2
% maxcore 2000
% output
    # printlevel mini
    print[ P_Basis ] 0
    print[ P_SCFInfo ] 1
    print[ P_SCFIterInfo ] 1
    print[ P_OrbEn ] 0
    print[ P_Cartesian ] 0
end
*xyz 0 1
 C        2.7610010000     1.3322240000     0.3290830000 
 C        2.3611770000    -0.1124680000     0.0723290000 
 C        2.8178820000    -1.0395070000     1.1657100000 
 C        3.0782550000    -2.4939980000     0.9094940000 
 O        2.8417040000    -2.9714010000    -0.3756260000 
 C        4.2239580000    -1.5782680000     1.1708630000 
 O        4.9167510000    -1.7574880000     2.3645090000 
 H        2.4134010000     1.9893170000    -0.4714470000 
 H        3.8480240000     1.4335810000     0.3940760000 
 H        2.3376330000     1.7012600000     1.2676490000 
 H        2.7692410000    -0.4549030000    -0.8818730000 
 H        1.2728650000    -0.1844770000    -0.0270970000 
 H        2.4104880000    -0.8343570000     2.1525260000 
 H        2.8285000000    -3.1763450000     1.7195820000 
 H        3.4950890000    -3.6492870000    -0.5685470000 
 H        4.8330780000    -1.3245220000     0.3031110000 
 H        5.1222240000    -0.8916630000     2.7274570000 
*
