! RI PBE def2-SVP def2-SVP/J NBO PAL2
% maxcore 2000
% output
    # printlevel mini
    print[ P_Basis ] 0
    print[ P_SCFInfo ] 1
    print[ P_SCFIterInfo ] 1
    print[ P_OrbEn ] 0
    print[ P_Cartesian ] 0
end
*xyz 0 1
 C        3.2990670000    -1.0448310000     0.6549300000 
 C        2.5212210000     0.0655080000    -0.0321240000 
 C        3.2458340000     1.3986020000     0.0105360000 
 C        2.5038370000     2.6586850000    -0.4368670000 
 O        2.6322200000     3.2270690000     0.8955130000 
 C        3.2781770000     2.1165970000     1.3529490000 
 O        3.6632260000     1.9087150000     2.4544350000 
 H        2.7430910000    -1.9839140000     0.6274900000 
 H        3.4971380000    -0.7960880000     1.6991490000 
 H        4.2613980000    -1.2126950000     0.1639380000 
 H        1.5372950000     0.1788000000     0.4359540000 
 H        2.3373990000    -0.1959410000    -1.0795820000 
 H        4.2498740000     1.3105600000    -0.4133950000 
 H        1.4525490000     2.5189090000    -0.6929440000 
 H        3.0016630000     3.2879240000    -1.1744900000 
*
