! RI PBE def2-SVP def2-SVP/J NBO PAL2
% maxcore 2000
% output
    # printlevel mini
    print[ P_Basis ] 0
    print[ P_SCFInfo ] 1
    print[ P_SCFIterInfo ] 1
    print[ P_OrbEn ] 0
    print[ P_Cartesian ] 0
end
*xyz 0 1
 C        1.0724050000     0.3679830000    -0.4841090000 
 C        2.2552310000     0.1458080000     0.0697070000 
 C        3.4328640000     1.0823490000     0.0417260000 
 C        3.7009050000     1.7637100000     1.4038770000 
 O        3.2557440000     3.1232420000     1.2823110000 
 C        3.1323090000     3.3622720000    -0.0454740000 
 C        3.2546450000     2.2976190000    -0.8283530000 
 H        0.2705870000    -0.3569100000    -0.4065640000 
 H        0.8663830000     1.2840130000    -1.0275390000 
 H        2.4190660000    -0.7840760000     0.6126740000 
 H        4.3161590000     0.5006960000    -0.2451150000 
 H        4.7711850000     1.7855550000     1.6311270000 
 H        3.1631820000     1.3039520000     2.2335380000 
 H        2.9378620000     4.3942830000    -0.3048380000 
 H        3.1698920000     2.2891140000    -1.9038680000 
*
