! RI PBE def2-SVP def2-SVP/J NBO PAL2
% maxcore 2000
% output
    # printlevel mini
    print[ P_Basis ] 0
    print[ P_SCFInfo ] 1
    print[ P_SCFIterInfo ] 1
    print[ P_OrbEn ] 0
    print[ P_Cartesian ] 0
end
*xyz 0 1
 C        2.4800510000    -0.6962920000    -0.9239220000 
 C        2.0995780000     0.1677760000     0.0051880000 
 C        2.9972030000     1.1923360000     0.6057530000 
 C        2.5665770000     2.6357520000     0.3346520000 
 O        2.9872980000     3.3165920000     1.4946490000 
 C        2.7242530000     2.4172710000     2.5288490000 
 O        2.9738040000     1.1229060000     2.0305760000 
 H        1.7881210000    -1.4093260000    -1.3561330000 
 H        3.5035480000    -0.7212070000    -1.2854340000 
 H        1.0744170000     0.1700000000     0.3695570000 
 H        4.0268340000     1.0330250000     0.2635610000 
 H        1.4752500000     2.7002910000     0.2145320000 
 H        3.0526010000     3.0780260000    -0.5338770000 
 H        1.6727170000     2.4905680000     2.8517470000 
 H        3.3937260000     2.6321820000     3.3650210000 
*
