! RI PBE def2-SVP def2-SVP/J NBO PAL2
% maxcore 2000
% output
    # printlevel mini
    print[ P_Basis ] 0
    print[ P_SCFInfo ] 1
    print[ P_SCFIterInfo ] 1
    print[ P_OrbEn ] 0
    print[ P_Cartesian ] 0
end
*xyz 0 1
 C        2.1325510000     0.5031800000    -0.9970340000 
 C        2.6508830000    -0.1195520000     0.0623380000 
 C        3.2882910000     0.5382020000     1.1632290000 
 C        3.8434630000     0.0492210000     2.2726400000 
 O        4.3399860000     1.0454750000     3.0615610000 
 C        4.0612450000     2.2546100000     2.3680880000 
 O        3.3953090000     1.9132940000     1.1687150000 
 H        1.6635330000    -0.0556630000    -1.7964880000 
 H        2.1659600000     1.5819760000    -1.0874070000 
 H        2.6100000000    -1.2017120000     0.1391820000 
 H        3.9546030000    -0.9622190000     2.6242580000 
 H        5.0023170000     2.7691780000     2.1397600000 
 H        3.4153590000     2.8891210000     2.9867680000 
*
