! RI PBE def2-SVP def2-SVP/J NBO PAL2
% maxcore 2000
% output
    # printlevel mini
    print[ P_Basis ] 0
    print[ P_SCFInfo ] 1
    print[ P_SCFIterInfo ] 1
    print[ P_OrbEn ] 0
    print[ P_Cartesian ] 0
end
*xyz 0 1
 C        1.0543370000     0.0941590000     0.0076060000 
 C        2.2543750000     0.0321600000    -0.0497530000 
 C        3.6535510000    -0.0312100000    -0.1173600000 
 C        4.4849560000    -1.0715180000    -0.0752090000 
 O        5.7797740000    -0.6704690000    -0.1754760000 
 C        5.7385240000     0.7490430000    -0.2900460000 
 O        4.3801900000     1.1402210000    -0.2513050000 
 H       -0.0074250000     0.1458110000     0.0586230000 
 H        4.2907290000    -2.1256880000     0.0214570000 
 H        6.1877570000     1.0488950000    -1.2441170000 
 H        6.2814440000     1.1964860000     0.5507800000 
*
