! RI PBE def2-SVP def2-SVP/J NBO PAL2
% maxcore 2000
% output
    # printlevel mini
    print[ P_Basis ] 0
    print[ P_SCFInfo ] 1
    print[ P_SCFIterInfo ] 1
    print[ P_OrbEn ] 0
    print[ P_Cartesian ] 0
end
*xyz 0 1
 C        1.0834380000     0.0671610000     0.1060600000 
 C        2.5671220000    -0.0878600000    -0.0358630000 
 C        3.2087810000     0.1479320000    -1.1727360000 
 C        2.6430040000     0.5921040000    -2.4862620000 
 O        3.7585090000     0.6876730000    -3.3460630000 
 C        4.9166780000     0.3369290000    -2.6422310000 
 O        4.5542680000     0.0129810000    -1.3212190000 
 H        0.7651890000    -0.1764510000     1.1199760000 
 H        0.5281610000    -0.5918470000    -0.5703400000 
 H        0.7492490000     1.0905570000    -0.0967160000 
 H        3.1493830000    -0.4057230000     0.8213110000 
 H        2.1436960000     1.5652370000    -2.4078840000 
 H        1.9209230000    -0.1302780000    -2.8852750000 
 H        5.6172220000     1.1811600000    -2.6246240000 
 H        5.3908880000    -0.5360770000    -3.1078540000 
*
