! RI PBE def2-SVP def2-SVP/J NBO PAL2
% maxcore 2000
% output
    # printlevel mini
    print[ P_Basis ] 0
    print[ P_SCFInfo ] 1
    print[ P_SCFIterInfo ] 1
    print[ P_OrbEn ] 0
    print[ P_Cartesian ] 0
end
*xyz 0 1
 C        1.6114710000     0.8258770000     1.0509160000 
 C        2.3907310000    -0.0983090000     0.1205000000 
 C        3.0014170000    -1.2521820000     0.8112810000 
 C        2.8698240000    -2.5666360000     0.6807630000 
 O        3.7364300000    -3.2310370000     1.5247930000 
 C        4.1438610000    -2.2248920000     2.4268280000 
 O        3.9662060000    -0.9876290000     1.7682670000 
 H        1.2037460000     1.6750830000     0.4985360000 
 H        2.2562450000     1.2135630000     1.8413550000 
 H        0.7819910000     0.2942410000     1.5221500000 
 H        3.1880190000     0.4702860000    -0.3733610000 
 H        1.7419130000    -0.4824030000    -0.6706510000 
 H        2.2686730000    -3.1606080000     0.0139870000 
 H        5.1934840000    -2.3610730000     2.6889160000 
 H        3.4996080000    -2.2543740000     3.3224300000 
*
