! RI PBE def2-SVP def2-SVP/J NBO PAL2
% maxcore 2000
% output
    # printlevel mini
    print[ P_Basis ] 0
    print[ P_SCFInfo ] 1
    print[ P_SCFIterInfo ] 1
    print[ P_OrbEn ] 0
    print[ P_Cartesian ] 0
end
*xyz 0 1
 C        1.2323320000    -0.1670090000    -0.3823000000 
 C        2.7000050000     0.2219070000    -0.4682630000 
 C        3.1452320000     1.0140750000     0.7245330000 
 O        4.3809170000     1.7090190000     0.6182610000 
 C        3.1888620000     2.4746030000     0.7367700000 
 C        3.0164310000     3.2847430000     1.9867540000 
 C        1.5828010000     3.7580780000     2.1694200000 
 H        0.9302290000    -0.7581630000    -1.2490010000 
 H        0.5905910000     0.7168630000    -0.3396860000 
 H        1.0313700000    -0.7652180000     0.5107060000 
 H        2.8921590000     0.8108960000    -1.3700320000 
 H        3.3216900000    -0.6769240000    -0.5447730000 
 H        3.0064700000     0.5198310000     1.6886560000 
 H        2.9043160000     2.9811630000    -0.1881590000 
 H        3.6923690000     4.1458170000     1.9431190000 
 H        3.3364730000     2.6808500000     2.8411000000 
 H        1.2562550000     4.3716340000     1.3252540000 
 H        1.4794130000     4.3610310000     3.0736640000 
 H        0.8942640000     2.9129120000     2.2499760000 
*
