! RI PBE def2-SVP def2-SVP/J NBO PAL2
% maxcore 2000
% output
    # printlevel mini
    print[ P_Basis ] 0
    print[ P_SCFInfo ] 1
    print[ P_SCFIterInfo ] 1
    print[ P_OrbEn ] 0
    print[ P_Cartesian ] 0
end
*xyz 0 1
 C        0.9780290000    -0.0206750000     0.0293850000 
 C        2.1767540000     0.0281840000     0.0502150000 
 C        3.6093950000     0.0925920000     0.1099450000 
 O        4.3459960000    -0.5892420000    -0.8925200000 
 C        4.3820650000     0.8287480000    -0.9127640000 
 C        5.6212780000     1.4729310000    -0.5817550000 
 C        6.6487820000     2.0350170000    -0.3208770000 
 H       -0.0852700000    -0.0680590000     0.0033670000 
 H        4.0430230000     0.0293320000     1.1052020000 
 H        3.8192330000     1.2794040000    -1.7268260000 
 H        7.5640050000     2.5262590000    -0.0872620000 
*
