! RI PBE def2-SVP def2-SVP/J NBO PAL2
% maxcore 2000
% output
    # printlevel mini
    print[ P_Basis ] 0
    print[ P_SCFInfo ] 1
    print[ P_SCFIterInfo ] 1
    print[ P_OrbEn ] 0
    print[ P_Cartesian ] 0
end
*xyz 0 1
 C        2.1284580000     1.1167560000    -0.5694140000 
 C        2.3245710000    -0.2084410000     0.1520570000 
 C        2.9216640000    -1.2509160000    -0.7462990000 
 O        2.8864080000    -2.6057230000    -0.3167040000 
 C        2.1750540000    -2.2601340000    -1.5082230000 
 C        0.6797900000    -2.3813390000    -1.4252170000 
 C        2.7823190000    -2.8111080000    -2.7689800000 
 H        1.7393350000     1.8801350000     0.1071360000 
 H        1.4250890000     1.0153270000    -1.3998160000 
 H        3.0716390000     1.4885770000    -0.9789980000 
 H        1.3787930000    -0.5662270000     0.5635330000 
 H        2.9970510000    -0.0718410000     1.0061630000 
 H        3.8864200000    -0.9585980000    -1.1693330000 
 H        0.2919270000    -2.0082190000    -0.4787430000 
 H        0.3886760000    -3.4314990000    -1.5164090000 
 H        0.2028300000    -1.8322730000    -2.2415580000 
 H        3.8688010000    -2.7166540000    -2.7475310000 
 H        2.4022780000    -2.2826460000    -3.6473690000 
 H        2.5325960000    -3.8700780000    -2.8799250000 
*
