! RI PBE def2-SVP def2-SVP/J NBO PAL2
% maxcore 2000
% output
    # printlevel mini
    print[ P_Basis ] 0
    print[ P_SCFInfo ] 1
    print[ P_SCFIterInfo ] 1
    print[ P_OrbEn ] 0
    print[ P_Cartesian ] 0
end
*xyz 0 1
 C        3.3028850000    -1.1350350000     0.4734250000 
 C        2.3782440000     0.0129850000     0.0990500000 
 C        3.1173720000     1.1480280000    -0.5446780000 
 O        2.4465860000     2.3896010000    -0.6446640000 
 C        3.5819060000     2.3110460000     0.2202080000 
 C        4.7651440000     3.0846390000    -0.1774770000 
 C        5.5586110000     3.7106870000     0.6816530000 
 H        2.7445250000    -1.9578110000     0.9239030000 
 H        4.0634830000    -0.8138980000     1.1894410000 
 H        3.8210960000    -1.5300440000    -0.4045260000 
 H        1.8541830000     0.3926940000     0.9810630000 
 H        1.6067670000    -0.3375920000    -0.5953430000 
 H        3.6902860000     0.8859490000    -1.4364890000 
 H        3.3337740000     2.3391880000     1.2812150000 
 H        4.9682350000     3.1208410000    -1.2450520000 
 H        5.3599830000     3.6952320000     1.7487940000 
 H        6.4334100000     4.2577000000     0.3519580000 
*
