! RI PBE def2-SVP def2-SVP/J NBO PAL2
% maxcore 2000
% output
    # printlevel mini
    print[ P_Basis ] 0
    print[ P_SCFInfo ] 1
    print[ P_SCFIterInfo ] 1
    print[ P_OrbEn ] 0
    print[ P_Cartesian ] 0
end
*xyz 0 1
 C        2.2326810000     1.3742810000    -0.2535270000 
 C        2.4139660000    -0.0935260000     0.1008890000 
 C        2.9099980000    -0.8990440000    -1.0615550000 
 O        2.7900090000    -2.3065320000    -0.9815620000 
 C        1.9917200000    -1.6283140000    -1.9477970000 
 C        2.2909150000    -1.8559290000    -3.3340970000 
 C        2.5125520000    -2.0386490000    -4.4995980000 
 H        1.8947530000     1.9462690000     0.6124370000 
 H        1.4943290000     1.5021120000    -1.0488910000 
 H        3.1702780000     1.8185730000    -0.5977200000 
 H        1.4737120000    -0.5282400000     0.4526070000 
 H        3.1319200000    -0.1963380000     0.9217770000 
 H        3.8463260000    -0.5650460000    -1.5094610000 
 H        0.9307150000    -1.5987180000    -1.7052420000 
 H        2.7178460000    -2.2047870000    -5.5307310000 
*
