! RI PBE def2-SVP def2-SVP/J NBO PAL2
% maxcore 2000
% output
    # printlevel mini
    print[ P_Basis ] 0
    print[ P_SCFInfo ] 1
    print[ P_SCFIterInfo ] 1
    print[ P_OrbEn ] 0
    print[ P_Cartesian ] 0
end
*xyz 0 1
 C        2.1910860000     0.9875900000     0.0538670000 
 C        2.2975310000    -0.5185070000     0.2378620000 
 C        3.1007290000    -1.1641190000    -0.8513130000 
 O        3.0012300000    -2.5760430000    -0.9807450000 
 C        2.4820770000    -1.7601820000    -2.0319960000 
 C        3.2014240000    -1.8893720000    -3.3380430000 
 O        2.9084810000    -3.1117910000    -3.9760140000 
 H        1.6197540000     1.4421880000     0.8652750000 
 H        1.6936710000     1.2378680000    -0.8865950000 
 H        3.1781380000     1.4576610000     0.0423700000 
 H        1.3049390000    -0.9773280000     0.2593820000 
 H        2.7688320000    -0.7458040000     1.2000560000 
 H        4.1196150000    -0.7885180000    -0.9624180000 
 H        1.3937080000    -1.7675610000    -2.0925120000 
 H        4.2807930000    -1.7758560000    -3.1679470000 
 H        2.8808080000    -1.0990780000    -4.0221740000 
 H        3.1472930000    -3.8170570000    -3.3667640000 
*
