! RI PBE def2-SVP def2-SVP/J NBO PAL2
% maxcore 2000
% output
    # printlevel mini
    print[ P_Basis ] 0
    print[ P_SCFInfo ] 1
    print[ P_SCFIterInfo ] 1
    print[ P_OrbEn ] 0
    print[ P_Cartesian ] 0
end
*xyz 0 1
 C        2.1372170000     1.2401340000     0.7073790000 
 C        1.8865250000     0.3743670000    -0.2649580000 
 C        2.8743190000     0.0120350000    -1.2897380000 
 O        2.8670160000    -1.3214060000    -1.7636270000 
 C        2.4418700000    -0.3172430000    -2.6660590000 
 C        3.3762290000    -0.0164320000    -3.7794710000 
 O        3.0388180000     0.4870020000    -4.8143480000 
 H        1.3853480000     1.4986980000     1.4425830000 
 H        3.1044810000     1.7236960000     0.7996320000 
 H        0.9187280000    -0.1132670000    -0.3447660000 
 H        3.8702270000     0.4365290000    -1.1642960000 
 H        1.3816890000    -0.2959280000    -2.9065520000 
 H        4.4324420000    -0.2917870000    -3.5688990000 
*
