! RI PBE def2-SVP def2-SVP/J NBO PAL2
% maxcore 2000
% output
    # printlevel mini
    print[ P_Basis ] 0
    print[ P_SCFInfo ] 1
    print[ P_SCFIterInfo ] 1
    print[ P_OrbEn ] 0
    print[ P_Cartesian ] 0
end
*xyz 0 1
 C        1.5573920000    -0.6726690000     0.0955500000 
 C        2.6931310000     0.2489610000    -0.3210090000 
 C        3.2251800000     1.0447170000     0.8329960000 
 O        3.9987050000     2.1880070000     0.5509280000 
 C        2.7157800000     2.3947100000     1.1286070000 
 C        2.7216650000     2.8682710000     2.5337600000 
 O        1.8122260000     3.4643850000     3.0412430000 
 H        1.2010970000    -1.2586100000    -0.7533310000 
 H        0.7111120000    -0.1057100000     0.4908140000 
 H        1.8779240000    -1.3749360000     0.8694760000 
 H        2.3675020000     0.9406750000    -1.1027050000 
 H        3.5175700000    -0.3364450000    -0.7420460000 
 H        3.5991010000     0.4609200000     1.6763950000 
 H        1.9578970000     2.8273690000     0.4797570000 
 H        3.6486180000     2.6144530000     3.0925660000 
*
