! RI PBE def2-SVP def2-SVP/J NBO PAL2
% maxcore 2000
% output
    # printlevel mini
    print[ P_Basis ] 0
    print[ P_SCFInfo ] 1
    print[ P_SCFIterInfo ] 1
    print[ P_OrbEn ] 0
    print[ P_Cartesian ] 0
end
*xyz 0 1
 C        2.1115360000    -1.4106300000     0.4659590000 
 C        2.4635430000     0.0075080000     0.0477530000 
 C        2.9304730000     0.0827500000    -1.3830820000 
 O        3.2992140000     1.4154770000    -1.7821340000 
 C        4.5297020000     0.9441100000    -2.3439000000 
 C        4.3261140000    -0.4527720000    -1.7491340000 
 C        4.4339350000    -1.6475010000    -2.6654710000 
 H        1.7691320000    -1.4426610000     1.5020010000 
 H        2.9752470000    -2.0765400000     0.3848240000 
 H        1.3151020000    -1.8239020000    -0.1590140000 
 H        3.2488870000     0.4155130000     0.6926880000 
 H        1.5940800000     0.6638510000     0.1602270000 
 H        2.1506240000    -0.3130260000    -2.0528370000 
 H        5.3896420000     1.5223980000    -1.9934060000 
 H        4.5075380000     0.9637300000    -3.4415340000 
 H        4.9326250000    -0.5992280000    -0.8504510000 
 H        3.8219280000    -1.5096030000    -3.5611440000 
 H        4.0988690000    -2.5621740000    -2.1692570000 
 H        5.4664170000    -1.8072300000    -2.9882890000 
*
