! RI PBE def2-SVP def2-SVP/J NBO PAL2
% maxcore 2000
% output
    # printlevel mini
    print[ P_Basis ] 0
    print[ P_SCFInfo ] 1
    print[ P_SCFIterInfo ] 1
    print[ P_OrbEn ] 0
    print[ P_Cartesian ] 0
end
*xyz 0 1
 C        1.1231290000     0.3212000000     0.0839490000 
 C        2.6059020000    -0.0144870000     0.1008260000 
 C        2.9796060000    -0.9677680000    -1.0022290000 
 O        4.3723470000    -1.3315710000    -1.0055680000 
 C        4.0540580000    -2.7061720000    -1.2515700000 
 C        2.5838350000    -2.4509390000    -0.9083980000 
 O        1.5736340000    -2.9655000000    -1.7184180000 
 H        0.8636850000     0.9913380000     0.9055100000 
 H        0.5095930000    -0.5783140000     0.1800310000 
 H        0.8385460000     0.8147530000    -0.8491740000 
 H        2.8894760000    -0.4630920000     1.0586110000 
 H        3.2050550000     0.8956430000    -0.0071170000 
 H        2.6911410000    -0.5496030000    -1.9820940000 
 H        4.6287500000    -3.3875990000    -0.6194640000 
 H        4.1995570000    -2.9788090000    -2.3069260000 
 H        2.3358480000    -2.7407710000     0.1146940000 
 H        1.7562500000    -2.7206970000    -2.6304730000 
*
