! RI PBE def2-SVP def2-SVP/J NBO PAL2
% maxcore 2000
% output
    # printlevel mini
    print[ P_Basis ] 0
    print[ P_SCFInfo ] 1
    print[ P_SCFIterInfo ] 1
    print[ P_OrbEn ] 0
    print[ P_Cartesian ] 0
end
*xyz 0 1
 C        1.4635740000    -0.6630030000    -0.2926940000 
 C        2.1354210000     0.3310450000     0.2702420000 
 C        3.0155070000     1.2540660000    -0.4845420000 
 O        2.8774090000     2.6440150000    -0.1168270000 
 C        4.2576950000     2.8067920000     0.2313200000 
 C        4.4963320000     1.3392930000    -0.0730860000 
 O        5.4091990000     0.5838300000    -0.0155890000 
 H        0.8627390000    -1.3455490000     0.2963010000 
 H        1.4960380000    -0.8328670000    -1.3641480000 
 H        2.0855490000     0.4954430000     1.3435310000 
 H        2.9034300000     1.1097910000    -1.5672400000 
 H        4.4049820000     3.0992550000     1.2765380000 
 H        4.7896240000     3.5051790000    -0.4246070000 
*
