! RI PBE def2-SVP def2-SVP/J NBO PAL2
% maxcore 2000
% output
    # printlevel mini
    print[ P_Basis ] 0
    print[ P_SCFInfo ] 1
    print[ P_SCFIterInfo ] 1
    print[ P_OrbEn ] 0
    print[ P_Cartesian ] 0
end
*xyz 0 1
 C        0.9936380000    -0.5355450000     0.3051960000 
 C        2.3476360000     0.0383200000    -0.0745000000 
 C        2.9742210000    -0.5161520000    -1.3284480000 
 O        4.1624840000     0.1473590000    -1.6812710000 
 C        2.8938230000    -1.9689360000    -1.7198290000 
 C        2.2007350000    -0.9142520000    -2.5444290000 
 O        2.6903650000    -0.5655550000    -3.7905960000 
 H        0.6292890000    -0.0665700000     1.2211570000 
 H        1.0422910000    -1.6115150000     0.4876790000 
 H        0.2452860000    -0.3578210000    -0.4703550000 
 H        3.0523950000    -0.1197150000     0.7520510000 
 H        2.2681610000     1.1225650000    -0.2055310000 
 H        4.8928210000    -0.2456440000    -1.1959810000 
 H        2.2932990000    -2.6462500000    -1.1246840000 
 H        3.7849740000    -2.4036500000    -2.1584760000 
 H        1.1179760000    -0.8809060000    -2.5069400000 
 H        3.5235950000    -0.1031120000    -3.6306520000 
*
