! RI PBE def2-SVP def2-SVP/J NBO PAL2
% maxcore 2000
% output
    # printlevel mini
    print[ P_Basis ] 0
    print[ P_SCFInfo ] 1
    print[ P_SCFIterInfo ] 1
    print[ P_OrbEn ] 0
    print[ P_Cartesian ] 0
end
*xyz 0 1
 C        2.6841740000     0.7748930000    -1.1992910000 
 C        2.3969440000    -0.0286330000     0.0589160000 
 C        3.2653320000    -1.2628670000     0.1504120000 
 O        3.0395110000    -2.0578490000     1.3330030000 
 C        2.7053210000    -3.2422960000     0.5997610000 
 C        2.8755000000    -2.4699250000    -0.6972160000 
 O        2.7362010000    -2.6961890000    -1.8568560000 
 H        2.0374780000     1.6523410000    -1.2533120000 
 H        2.5174480000     0.1766860000    -2.0974950000 
 H        3.7200740000     1.1237640000    -1.2179240000 
 H        1.3451990000    -0.3295270000     0.0933720000 
 H        2.5805120000     0.5737640000     0.9540390000 
 H        4.3277450000    -1.0003600000     0.0475040000 
 H        1.6932300000    -3.6061090000     0.8065560000 
 H        3.4255400000    -4.0555820000     0.7442220000 
*
