! RI PBE def2-SVP def2-SVP/J NBO PAL2
% maxcore 2000
% output
    # printlevel mini
    print[ P_Basis ] 0
    print[ P_SCFInfo ] 1
    print[ P_SCFIterInfo ] 1
    print[ P_OrbEn ] 0
    print[ P_Cartesian ] 0
end
*xyz 0 1
 C        1.2180240000     0.2277120000    -0.7634450000 
 C        2.2099400000     0.2710090000     0.1128020000 
 C        3.3216430000     1.2811140000     0.1391020000 
 O        3.3992980000     1.8774650000     1.4357410000 
 C        3.2169590000     3.2791460000     1.3469560000 
 C        3.1207500000     3.5683010000    -0.1129770000 
 C        3.1843670000     2.4388340000    -0.7987570000 
 H        0.4599500000    -0.5455460000    -0.7161990000 
 H        1.1204440000     0.9607570000    -1.5571100000 
 H        2.2710180000    -0.4750670000     0.9015510000 
 H        4.2676000000     0.7436310000    -0.0387910000 
 H        4.0680510000     3.7888380000     1.8186270000 
 H        2.3102480000     3.5821060000     1.8904250000 
 H        3.0165450000     4.5661310000    -0.5191210000 
 H        3.1534520000     2.3349810000    -1.8748030000 
*
