! RI PBE def2-SVP def2-SVP/J NBO PAL2
% maxcore 2000
% output
    # printlevel mini
    print[ P_Basis ] 0
    print[ P_SCFInfo ] 1
    print[ P_SCFIterInfo ] 1
    print[ P_OrbEn ] 0
    print[ P_Cartesian ] 0
end
*xyz 0 1
 C        0.8675740000     0.0098190000    -0.2470080000 
 C        2.0567180000    -0.0619830000    -0.1023120000 
 C        3.5122000000    -0.1261070000     0.0559430000 
 O        3.9203780000    -1.2949660000     0.7526700000 
 C        4.5267190000    -0.9469650000     1.9869500000 
 C        4.6195370000     0.5411170000     1.9698610000 
 C        4.0505030000     1.0155020000     0.8752860000 
 H       -0.1884920000     0.0641050000    -0.3690560000 
 H        3.9600410000    -0.1485470000    -0.9480340000 
 H        5.5083670000    -1.4327260000     2.0513660000 
 H        3.9192260000    -1.3109200000     2.8277730000 
 H        5.0781300000     1.1201850000     2.7605950000 
 H        3.9376010000     2.0498750000     0.5825850000 
*
