! RI PBE def2-SVP def2-SVP/J NBO PAL2
% maxcore 2000
% output
    # printlevel mini
    print[ P_Basis ] 0
    print[ P_SCFInfo ] 1
    print[ P_SCFIterInfo ] 1
    print[ P_OrbEn ] 0
    print[ P_Cartesian ] 0
end
*xyz 0 1
 C        0.9927020000    -0.0338370000    -0.0924150000 
 C        2.4665570000    -0.0849450000     0.1731060000 
 C        3.0726520000     0.5943630000     1.1500630000 
 O        4.4255260000     0.5217020000     1.3617960000 
 C        4.7798810000     1.3455090000     2.4618830000 
 C        3.4952280000     1.9455220000     2.9187570000 
 C        2.5119070000     1.4953110000     2.1414140000 
 H        0.7360710000    -0.6714740000    -0.9391020000 
 H        0.6450500000     0.9749850000    -0.3377290000 
 H        0.4002910000    -0.3833570000     0.7594300000 
 H        3.0879370000    -0.7080220000    -0.4603440000 
 H        5.5089210000     2.0983010000     2.1330250000 
 H        5.2629310000     0.7327400000     3.2348850000 
 H        3.4134700000     2.6314680000     3.7505810000 
 H        1.4618740000     1.7395330000     2.2097600000 
*
