! RI PBE def2-SVP def2-SVP/J NBO PAL2
% maxcore 2000
% output
    # printlevel mini
    print[ P_Basis ] 0
    print[ P_SCFInfo ] 1
    print[ P_SCFIterInfo ] 1
    print[ P_OrbEn ] 0
    print[ P_Cartesian ] 0
end
*xyz 0 1
 C        1.0099620000    -0.2102670000    -0.4548770000 
 C        2.4085710000     0.0876520000     0.0576970000 
 C        2.9447120000    -0.8307450000     1.1415420000 
 O        4.2731700000    -0.4498730000     1.4688760000 
 C        2.1146810000    -1.0776580000     2.4245550000 
 C        2.5847010000    -2.5451870000     2.4005090000 
 C        2.9751610000    -2.3543420000     0.9220650000 
 H        0.7287980000     0.5011250000    -1.2343770000 
 H        0.2598690000    -0.1389460000     0.3362140000 
 H        0.9428250000    -1.2104700000    -0.8891440000 
 H        2.4368530000     1.1147750000     0.4474130000 
 H        3.1239900000     0.0581630000    -0.7713670000 
 H        4.2495930000     0.4539130000     1.7975480000 
 H        1.0410790000    -0.9926160000     2.2451170000 
 H        2.3798200000    -0.4667760000     3.2903970000 
 H        1.8407730000    -3.3095860000     2.6272530000 
 H        3.4591780000    -2.7024830000     3.0314790000 
 H        2.1860070000    -2.6856790000     0.2453380000 
 H        3.9327500000    -2.7526000000     0.5853710000 
*
