! RI PBE def2-SVP def2-SVP/J NBO PAL2
% maxcore 2000
% output
    # printlevel mini
    print[ P_Basis ] 0
    print[ P_SCFInfo ] 1
    print[ P_SCFIterInfo ] 1
    print[ P_OrbEn ] 0
    print[ P_Cartesian ] 0
end
*xyz 0 1
 C        3.2096930000    -1.0452500000     0.8414210000 
 C        2.6086420000     0.0605700000    -0.0080680000 
 C        3.2891630000     1.3861050000     0.2048120000 
 O        2.7268220000     2.3723530000    -0.6151630000 
 C        3.0765210000     3.5878940000     0.0074450000 
 C        2.9938570000     3.2501750000     1.4962780000 
 O        3.1179280000     1.8391790000     1.5326710000 
 H        2.7008020000    -1.9940470000     0.6614190000 
 H        3.1244330000    -0.8105730000     1.9038820000 
 H        4.2695760000    -1.1897220000     0.6139120000 
 H        1.5473380000     0.1955940000     0.2183090000 
 H        2.6884580000    -0.1826610000    -1.0716400000 
 H        4.3733630000     1.3099910000    -0.0051550000 
 H        2.3755420000     4.3597400000    -0.3098670000 
 H        4.0944740000     3.8872740000    -0.2769840000 
 H        2.0300960000     3.5313660000     1.9308760000 
 H        3.7944920000     3.7211220000     2.0750430000 
*
