! RI PBE def2-SVP def2-SVP/J NBO PAL2
% maxcore 2000
% output
    # printlevel mini
    print[ P_Basis ] 0
    print[ P_SCFInfo ] 1
    print[ P_SCFIterInfo ] 1
    print[ P_OrbEn ] 0
    print[ P_Cartesian ] 0
end
*xyz 0 1
 C        1.5245390000     0.7638830000     0.1781180000 
 C        2.6517750000     0.0846560000     0.0463240000 
 C        3.2693940000    -0.2128170000    -1.2752780000 
 O        4.5839550000     0.2739670000    -1.3192280000 
 C        5.2376250000    -0.5353490000    -2.2730660000 
 C        4.6424840000    -1.9079110000    -2.0009050000 
 O        3.3557350000    -1.6134570000    -1.4848310000 
 H        1.0882930000     0.9627810000     1.1497460000 
 H        0.9941910000     1.1463070000    -0.6885450000 
 H        3.1884140000    -0.3057400000     0.9062830000 
 H        2.6737230000     0.2296060000    -2.0920260000 
 H        6.3126930000    -0.4738440000    -2.1058330000 
 H        5.0080630000    -0.1940490000    -3.2918330000 
 H        5.2210840000    -2.4599060000    -1.2525500000 
 H        4.5490100000    -2.5192280000    -2.9023860000 
*
