! RI PBE def2-SVP def2-SVP/J NBO PAL2
% maxcore 2000
% output
    # printlevel mini
    print[ P_Basis ] 0
    print[ P_SCFInfo ] 1
    print[ P_SCFIterInfo ] 1
    print[ P_OrbEn ] 0
    print[ P_Cartesian ] 0
end
*xyz 0 1
 C        2.9906100000     0.9510610000     0.6628630000 
 C        2.3190820000    -0.1042290000     0.2328930000 
 C        2.8629340000    -1.0388280000    -0.7864730000 
 O        2.9389290000    -2.3672180000    -0.2784750000 
 C        2.5855100000    -3.1629170000    -1.3431800000 
 C        2.0471870000    -2.4289280000    -2.3033210000 
 O        2.0140360000    -1.1061490000    -1.9281140000 
 H        2.5797630000     1.6229410000     1.4067940000 
 H        3.9811450000     1.1805790000     0.2827860000 
 H        1.3276290000    -0.3440830000     0.6055980000 
 H        3.8707080000    -0.7319390000    -1.1169060000 
 H        2.7406010000    -4.2238930000    -1.2487910000 
 H        1.6161850000    -2.6907970000    -3.2542660000 
*
