! RI PBE def2-SVP def2-SVP/J NBO PAL2
% maxcore 2000
% output
    # printlevel mini
    print[ P_Basis ] 0
    print[ P_SCFInfo ] 1
    print[ P_SCFIterInfo ] 1
    print[ P_OrbEn ] 0
    print[ P_Cartesian ] 0
end
*xyz 0 1
 C        1.3313940000     0.1386000000     0.6342620000 
 C        2.4502410000     0.0394170000     0.2124490000 
 C        3.8183670000    -0.0823270000    -0.3269370000 
 O        4.6327250000     0.9783230000     0.0850510000 
 C        5.1311020000     0.6075420000     1.3609930000 
 C        4.9938730000    -0.9254540000     1.3892360000 
 O        4.4484240000    -1.2487250000     0.1199570000 
 H        0.3385660000     0.2266710000     1.0088240000 
 H        3.7923050000    -0.0974310000    -1.4189000000 
 H        4.5439330000     1.0780610000     2.1558440000 
 H        6.1640660000     0.9508920000     1.4260360000 
 H        4.3248940000    -1.2537070000     2.1910270000 
 H        5.9482090000    -1.4445520000     1.4822470000 
*
