! RI PBE def2-SVP def2-SVP/J NBO PAL2
% maxcore 2000
% output
    # printlevel mini
    print[ P_Basis ] 0
    print[ P_SCFInfo ] 1
    print[ P_SCFIterInfo ] 1
    print[ P_OrbEn ] 0
    print[ P_Cartesian ] 0
end
*xyz 0 1
 C        3.0974730000     0.6819770000     1.3459070000 
 C        2.4743940000     0.0474170000     0.1138220000 
 C        2.9384800000     0.5897830000    -1.2276900000 
 O        2.3302290000    -0.1104380000    -2.2834920000 
 C        2.9730770000     2.1243910000    -1.3626160000 
 O        4.4014790000     2.1303790000    -1.2495210000 
 C        4.4525380000     0.7083500000    -1.4227790000 
 H        2.7036040000     0.2154100000     2.2509590000 
 H        2.8857820000     1.7509970000     1.4061800000 
 H        4.1821400000     0.5604820000     1.3570850000 
 H        1.3826560000     0.1668680000     0.1609300000 
 H        2.6697000000    -1.0307560000     0.1110550000 
 H        1.4166360000    -0.2931480000    -2.0464180000 
 H        2.4941340000     2.7257110000    -0.5837350000 
 H        2.6377170000     2.4565930000    -2.3514820000 
 H        5.1031430000     0.2224020000    -0.6899060000 
 H        4.7572190000     0.4266730000    -2.4364100000 
*
