! RI PBE def2-SVP def2-SVP/J NBO PAL2
% maxcore 2000
% output
    # printlevel mini
    print[ P_Basis ] 0
    print[ P_SCFInfo ] 1
    print[ P_SCFIterInfo ] 1
    print[ P_OrbEn ] 0
    print[ P_Cartesian ] 0
end
*xyz 0 1
 C        1.0287400000    -0.3245590000    -0.4786420000 
 C        2.5166310000    -0.2407020000    -0.4626060000 
 C        3.3314620000    -1.2590460000    -0.2066630000 
 C        4.8042420000    -1.2112390000    -0.1448180000 
 C        5.5842050000     0.0755710000    -0.1172520000 
 C        5.5104120000    -0.7532410000     1.1099930000 
 O        6.6898840000    -1.3715290000     1.5093500000 
 H        0.5843600000     0.3520070000     0.2587570000 
 H        0.6830230000    -1.3371350000    -0.2609580000 
 H        0.6274490000    -0.0290980000    -1.4534620000 
 H        2.9463020000     0.7337490000    -0.6868490000 
 H        2.8887610000    -2.2343650000    -0.0029700000 
 H        5.3145710000    -2.0340350000    -0.6380090000 
 H        5.0527800000     1.0182730000    -0.1336350000 
 H        6.5349560000     0.0761310000    -0.6350210000 
 H        4.8723440000    -0.3944310000     1.9154900000 
 H        6.4650780000    -2.1936420000     1.9535650000 
*
