! RI PBE def2-SVP def2-SVP/J NBO PAL2
% maxcore 2000
% output
    # printlevel mini
    print[ P_Basis ] 0
    print[ P_SCFInfo ] 1
    print[ P_SCFIterInfo ] 1
    print[ P_OrbEn ] 0
    print[ P_Cartesian ] 0
end
*xyz 0 1
 C        1.0137240000     0.0251280000    -0.0690630000 
 C        2.4620160000    -0.0614040000    -0.0684550000 
 C        3.6637560000    -0.1375810000    -0.0619380000 
 C        5.0919020000    -0.2205610000    -0.0650860000 
 C        5.8256410000    -0.9487530000    -1.1766730000 
 C        5.9020090000     0.5252250000    -1.1028610000 
 O        7.1302960000     1.0600880000    -0.7401910000 
 H        0.5737760000    -0.7202980000    -0.7367350000 
 H        0.6741410000     1.0112970000    -0.3966090000 
 H        0.6136630000    -0.1490980000     0.9331780000 
 H        5.5679100000    -0.2848230000     0.9082620000 
 H        5.2308830000    -1.3981000000    -1.9606270000 
 H        6.7148300000    -1.4931450000    -0.8854210000 
 H        5.3339130000     1.0974950000    -1.8324640000 
 H        6.9746300000     1.8869530000    -0.2751270000 
*
