! RI PBE def2-SVP def2-SVP/J NBO PAL2
% maxcore 2000
% output
    # printlevel mini
    print[ P_Basis ] 0
    print[ P_SCFInfo ] 1
    print[ P_SCFIterInfo ] 1
    print[ P_OrbEn ] 0
    print[ P_Cartesian ] 0
end
*xyz 0 1
 C        1.0772970000    -0.0414530000     0.0160200000 
 C        2.5888230000     0.0031110000    -0.1286910000 
 C        3.1339000000    -1.1269610000    -0.9882530000 
 C        4.6259680000    -1.0587330000    -1.1798940000 
 C        5.2775190000    -1.9932130000    -2.2062120000 
 C        5.8353150000    -0.7035820000    -2.8090070000 
 O        5.0450870000     0.1035650000    -1.9266760000 
 H        0.7105440000     0.7779020000     0.6384480000 
 H        0.7494110000    -0.9791580000     0.4743210000 
 H        0.5863220000     0.0373570000    -0.9580560000 
 H        3.0562330000    -0.0405810000     0.8619140000 
 H        2.8932260000     0.9573910000    -0.5693740000 
 H        2.6545240000    -1.1094970000    -1.9743990000 
 H        2.8912370000    -2.0966280000    -0.5339040000 
 H        5.1314640000    -1.0758190000    -0.2034330000 
 H        4.5540590000    -2.5058750000    -2.8416370000 
 H        6.0018590000    -2.7118830000    -1.8254580000 
 H        5.6057950000    -0.5063170000    -3.8600020000 
 H        6.9079080000    -0.5498370000    -2.6432980000 
*
