! RI PBE def2-SVP def2-SVP/J NBO PAL2
% maxcore 2000
% output
    # printlevel mini
    print[ P_Basis ] 0
    print[ P_SCFInfo ] 1
    print[ P_SCFIterInfo ] 1
    print[ P_OrbEn ] 0
    print[ P_Cartesian ] 0
end
*xyz 0 1
 C        1.1769770000     0.5935310000    -0.7283260000 
 C        2.2826280000     0.2973900000    -0.3679610000 
 C        3.6258420000    -0.0646340000     0.0492550000 
 C        4.2753750000    -1.1051230000    -0.8446200000 
 C        5.6420890000    -1.6447040000    -0.4093010000 
 C        4.9624650000    -3.0115250000    -0.5016550000 
 O        3.6806680000    -2.4056490000    -0.7210700000 
 H        0.1934850000     0.8489900000    -1.0442440000 
 H        3.6059420000    -0.4456290000     1.0759040000 
 H        4.2611140000     0.8294150000     0.0483480000 
 H        4.2448790000    -0.7650620000    -1.8871180000 
 H        5.9207020000    -1.3536290000     0.6044930000 
 H        6.4770980000    -1.4610090000    -1.0834460000 
 H        4.9724020000    -3.6329160000     0.3978420000 
 H        5.2728440000    -3.6175360000    -1.3598910000 
*
