! RI PBE def2-SVP def2-SVP/J NBO PAL2
% maxcore 2000
% output
    # printlevel mini
    print[ P_Basis ] 0
    print[ P_SCFInfo ] 1
    print[ P_SCFIterInfo ] 1
    print[ P_OrbEn ] 0
    print[ P_Cartesian ] 0
end
*xyz 0 1
 C        0.7671170000    -0.1550970000    -0.4258730000 
 C        2.2506780000    -0.2182170000    -0.3222480000 
 C        3.1043380000     0.4422980000    -1.0962110000 
 C        4.5771090000     0.3358100000    -0.9817580000 
 C        5.3971200000     0.0472200000    -2.2521720000 
 C        6.1860630000     1.2923720000    -1.8536170000 
 O        5.2333950000     1.6160890000    -0.8318610000 
 H        0.3241550000     0.1889460000     0.5141260000 
 H        0.3439680000    -1.1447810000    -0.6259040000 
 H        0.4492720000     0.5202510000    -1.2221160000 
 H        2.6555490000    -0.8636990000     0.4567080000 
 H        2.7337950000     1.1075260000    -1.8752530000 
 H        4.8407690000    -0.3274130000    -0.1470670000 
 H        4.8176230000     0.1678750000    -3.1678330000 
 H        5.9322540000    -0.9008090000    -2.2817270000 
 H        6.2739080000     2.0878130000    -2.5987250000 
 H        7.1767070000     1.0877050000    -1.4305480000 
*
