! RI PBE def2-SVP def2-SVP/J NBO PAL2
% maxcore 2000
% output
    # printlevel mini
    print[ P_Basis ] 0
    print[ P_SCFInfo ] 1
    print[ P_SCFIterInfo ] 1
    print[ P_OrbEn ] 0
    print[ P_Cartesian ] 0
end
*xyz 0 1
 C        1.0290140000    -0.1037460000    -0.0534140000 
 C        2.5486240000     0.0046630000    -0.1050530000 
 C        3.1811890000    -1.3688210000    -0.2777620000 
 C        2.9519300000     0.9901120000    -1.1875670000 
 C        4.4307610000     1.2028740000    -1.5389750000 
 C        3.9981370000     0.8283650000    -2.9566150000 
 O        2.6683830000     0.5188920000    -2.5218790000 
 H        0.7101040000    -0.7815290000     0.7419090000 
 H        0.6440380000    -0.4901910000    -1.0006680000 
 H        0.5644890000     0.8695130000     0.1257780000 
 H        2.8993390000     0.4397690000     0.8414150000 
 H        2.8850100000    -1.8071390000    -1.2334800000 
 H        2.8528950000    -2.0419010000     0.5176210000 
 H        4.2723930000    -1.3326120000    -0.2436190000 
 H        2.4252990000     1.9384780000    -1.0098560000 
 H        5.1154330000     0.4954010000    -1.0728710000 
 H        4.8091630000     2.2147290000    -1.4007890000 
 H        4.4913850000    -0.0382520000    -3.4071950000 
 H        4.0049240000     1.6563040000    -3.6742810000 
*
