! RI PBE def2-SVP def2-SVP/J NBO PAL2
% maxcore 2000
% output
    # printlevel mini
    print[ P_Basis ] 0
    print[ P_SCFInfo ] 1
    print[ P_SCFIterInfo ] 1
    print[ P_OrbEn ] 0
    print[ P_Cartesian ] 0
end
*xyz 0 1
 C        1.0729750000    -0.0760510000     0.0019320000 
 C        2.5202680000    -0.0047360000    -0.0375300000 
 C        3.7218910000     0.0418040000    -0.0671790000 
 C        5.1676200000     0.1153950000    -0.1085940000 
 C        5.8784690000     1.0860200000     0.8543390000 
 C        6.6719680000    -0.1489370000     1.2784490000 
 O        5.8345570000    -1.0127000000     0.4958550000 
 H        0.6515260000    -0.1152460000    -1.0055060000 
 H        0.6502720000     0.7927370000     0.5127230000 
 H        0.7469630000    -0.9708080000     0.5382220000 
 H        5.4968350000     0.2335950000    -1.1492570000 
 H        5.2186270000     1.4801770000     1.6249140000 
 H        6.4332900000     1.8987140000     0.3885890000 
 H        6.6459540000    -0.4101210000     2.3395900000 
 H        7.7099880000    -0.1696520000     0.9280620000 
*
