! RI PBE def2-SVP def2-SVP/J NBO PAL2
% maxcore 2000
% output
    # printlevel mini
    print[ P_Basis ] 0
    print[ P_SCFInfo ] 1
    print[ P_SCFIterInfo ] 1
    print[ P_OrbEn ] 0
    print[ P_Cartesian ] 0
end
*xyz 0 1
 C        1.2424010000     0.3197400000    -0.3511510000 
 C        2.7489700000     0.3617590000    -0.5414400000 
 C        3.4871060000    -0.6500600000     0.3222900000 
 C        4.9890210000    -0.5935580000     0.1593130000 
 C        5.7346600000     0.5964610000     0.7803040000 
 O        6.5647680000    -0.2687980000     1.5655330000 
 C        5.8461530000    -1.4266450000     1.1205360000 
 H        0.7372650000     1.0529590000    -0.9838440000 
 H        0.9700500000     0.5326400000     0.6863500000 
 H        0.8409010000    -0.6666060000    -0.6002480000 
 H        3.1186090000     1.3687670000    -0.3145750000 
 H        2.9931910000     0.1809750000    -1.5946440000 
 H        3.1338500000    -1.6604710000     0.0806580000 
 H        3.2352850000    -0.4835900000     1.3776110000 
 H        5.2618010000    -0.7530950000    -0.8871110000 
 H        5.1114520000     1.2433030000     1.4112860000 
 H        6.3239280000     1.2208840000     0.1017800000 
 H        5.2840450000    -1.8951110000     1.9381520000 
 H        6.5100510000    -2.1710430000     0.6701200000 
*
