! RI PBE def2-SVP def2-SVP/J NBO PAL2
% maxcore 2000
% output
    # printlevel mini
    print[ P_Basis ] 0
    print[ P_SCFInfo ] 1
    print[ P_SCFIterInfo ] 1
    print[ P_OrbEn ] 0
    print[ P_Cartesian ] 0
end
*xyz 0 1
 C        1.8685200000    -2.6294780000    -1.3197460000 
 C        2.6277980000    -1.6830660000    -1.8541470000 
 C        3.0291290000    -0.4165900000    -1.1736750000 
 C        4.5350630000    -0.2958910000    -1.0088540000 
 C        5.0327840000     0.8670880000    -0.1409300000 
 O        5.5544760000    -0.0274130000     0.8486460000 
 C        5.1758600000    -1.1739560000     0.0734140000 
 H        1.6190690000    -3.5329020000    -1.8641350000 
 H        1.4621350000    -2.5305520000    -0.3176540000 
 H        3.0139020000    -1.8250430000    -2.8628730000 
 H        2.5487040000    -0.3532550000    -0.1913290000 
 H        2.6732070000     0.4414970000    -1.7587380000 
 H        5.0284300000    -0.3642230000    -1.9808470000 
 H        4.2492650000     1.5169000000     0.2660570000 
 H        5.8189750000     1.4884470000    -0.5832700000 
 H        4.4838480000    -1.8276270000     0.6156380000 
 H        6.0478250000    -1.7576160000    -0.2394470000 
*
