! RI PBE def2-SVP def2-SVP/J NBO PAL2
% maxcore 2000
% output
    # printlevel mini
    print[ P_Basis ] 0
    print[ P_SCFInfo ] 1
    print[ P_SCFIterInfo ] 1
    print[ P_OrbEn ] 0
    print[ P_Cartesian ] 0
end
*xyz 0 1
 C        4.5262720000     1.6257040000    -0.8307970000 
 C        3.6612490000     0.5568760000    -0.2382100000 
 C        2.8499470000     0.7919260000     0.7880570000 
 C        3.7757460000    -0.7743620000    -0.9037480000 
 C        5.1154960000    -1.5317520000    -0.8204710000 
 O        4.4440140000    -2.7471530000    -0.4747340000 
 C        3.2064700000    -2.0494800000    -0.2758680000 
 H        4.4100720000     2.5746030000    -0.3063850000 
 H        4.2814050000     1.7830070000    -1.8866280000 
 H        5.5831860000     1.3409020000    -0.7940140000 
 H        2.7888140000     1.7763410000     1.2386790000 
 H        2.2170650000     0.0212500000     1.2116180000 
 H        3.4643420000    -0.6788620000    -1.9493620000 
 H        5.7663250000    -1.1843200000    -0.0081030000 
 H        5.6992510000    -1.6299090000    -1.7399080000 
 H        2.9672000000    -1.9609530000     0.7896280000 
 H        2.3748450000    -2.5317170000    -0.7961420000 
*
