! RI PBE def2-SVP def2-SVP/J NBO PAL2
% maxcore 2000
% output
    # printlevel mini
    print[ P_Basis ] 0
    print[ P_SCFInfo ] 1
    print[ P_SCFIterInfo ] 1
    print[ P_OrbEn ] 0
    print[ P_Cartesian ] 0
end
*xyz 0 1
 C        0.8626950000    -0.1948460000    -0.0376680000 
 C        2.3827300000    -0.0892940000    -0.0296750000 
 C        3.0162920000    -1.4498670000    -0.2898820000 
 C        2.8386490000     1.0035110000    -0.9918440000 
 C        4.3459110000     1.1976920000    -1.1984160000 
 O        4.2680470000     0.7562220000    -2.5596690000 
 C        2.8374260000     0.6911710000    -2.4961420000 
 H        0.5143260000    -0.9419710000     0.6796530000 
 H        0.4982220000    -0.4945510000    -1.0255650000 
 H        0.3928190000     0.7593360000     0.2151350000 
 H        2.6919710000     0.2352890000     0.9733650000 
 H        2.6931840000    -1.8658290000    -1.2477710000 
 H        2.7204010000    -2.1580190000     0.4877810000 
 H        4.1071850000    -1.4060520000    -0.2988730000 
 H        2.3139530000     1.9287110000    -0.7428170000 
 H        5.0066610000     0.5638460000    -0.5977890000 
 H        4.6915600000     2.2353400000    -1.1292830000 
 H        2.4602280000    -0.2919510000    -2.7951590000 
 H        2.3701280000     1.4560520000    -3.1263010000 
*
