! RI PBE def2-SVP def2-SVP/J NBO PAL2
% maxcore 2000
% output
    # printlevel mini
    print[ P_Basis ] 0
    print[ P_SCFInfo ] 1
    print[ P_SCFIterInfo ] 1
    print[ P_OrbEn ] 0
    print[ P_Cartesian ] 0
end
*xyz 0 1
 C        3.4789780000     1.8068300000    -0.7870020000 
 C        3.2240680000     0.5074080000    -0.0397080000 
 C        3.4348780000    -0.7437800000    -0.8852930000 
 C        4.8577750000    -0.9302060000    -1.3238390000 
 O        5.1018440000    -1.9478430000    -2.2870390000 
 C        5.3394680000    -0.5971410000    -2.6626320000 
 C        6.7582360000    -0.2173620000    -2.9460020000 
 H        3.2842490000     2.6733940000    -0.1510990000 
 H        2.8321870000     1.8880550000    -1.6654570000 
 H        4.5133120000     1.8766900000    -1.1324090000 
 H        2.1982810000     0.5021030000     0.3412780000 
 H        3.8718800000     0.4587170000     0.8434180000 
 H        2.7924290000    -0.7182500000    -1.7720510000 
 H        3.1377340000    -1.6276380000    -0.3100050000 
 H        5.5959470000    -0.9095760000    -0.5187920000 
 H        4.5996270000    -0.2088460000    -3.3639260000 
 H        7.4264610000    -0.6319580000    -2.1890760000 
 H        6.8705320000     0.8703390000    -2.9549140000 
 H        7.0710260000    -0.5953470000    -3.9226410000 
*
