! RI PBE def2-SVP def2-SVP/J NBO PAL2
% maxcore 2000
% output
    # printlevel mini
    print[ P_Basis ] 0
    print[ P_SCFInfo ] 1
    print[ P_SCFIterInfo ] 1
    print[ P_OrbEn ] 0
    print[ P_Cartesian ] 0
end
*xyz 0 1
 C        0.8630470000     0.1220230000     1.8357580000 
 C        2.3453220000     0.0012550000     1.7645950000 
 C        3.0632410000     0.0849150000     0.6509040000 
 C        4.5326550000    -0.0432330000     0.5984100000 
 O        5.2157570000    -0.3012150000     1.8144630000 
 C        5.2320930000    -1.3164590000     0.8209500000 
 C        6.5565340000    -1.6334930000     0.2043430000 
 H        0.5679020000     0.9534760000     2.4838290000 
 H        0.4155250000    -0.7799320000     2.2656820000 
 H        0.4226760000     0.2843660000     0.8499430000 
 H        2.8777520000    -0.1626390000     2.6989670000 
 H        2.5731980000     0.2683250000    -0.3038180000 
 H        5.0396890000     0.6761090000    -0.0470120000 
 H        4.5998750000    -2.1694160000     1.0677360000 
 H        7.1005750000    -0.7178500000    -0.0340240000 
 H        6.4238290000    -2.2127690000    -0.7131620000 
 H        7.1672600000    -2.2257520000     0.8907250000 
*
