! RI PBE def2-SVP def2-SVP/J NBO PAL2
% maxcore 2000
% output
    # printlevel mini
    print[ P_Basis ] 0
    print[ P_SCFInfo ] 1
    print[ P_SCFIterInfo ] 1
    print[ P_OrbEn ] 0
    print[ P_Cartesian ] 0
end
*xyz 0 1
 C        1.0931510000     0.0091430000     0.1121330000 
 C        2.6043020000     0.1182240000    -0.0492170000 
 C        3.0941210000     1.5390370000     0.1802130000 
 C        3.2832850000    -0.9032780000     0.8307510000 
 O        4.6961330000    -0.8385830000     0.9661680000 
 C        3.8988460000    -0.6237030000     2.1266350000 
 C        3.9982320000    -1.6528220000     3.2082400000 
 H        0.5788570000     0.6848770000    -0.5750560000 
 H        0.7900330000     0.2746110000     1.1293740000 
 H        0.7377170000    -1.0049780000    -0.0892000000 
 H        2.8560310000    -0.1616890000    -1.0812070000 
 H        2.7488550000     1.9280240000     1.1423810000 
 H        2.7092290000     2.2033260000    -0.5967780000 
 H        4.1845430000     1.5871640000     0.1596810000 
 H        2.9139970000    -1.9207810000     0.6846290000 
 H        3.9076210000     0.4116200000     2.4645500000 
 H        3.9671920000    -2.6594270000     2.7874190000 
 H        3.1734160000    -1.5446620000     3.9177050000 
 H        4.9343700000    -1.5412820000     3.7612910000 
*
