! RI PBE def2-SVP def2-SVP/J NBO PAL2
% maxcore 2000
% output
    # printlevel mini
    print[ P_Basis ] 0
    print[ P_SCFInfo ] 1
    print[ P_SCFIterInfo ] 1
    print[ P_OrbEn ] 0
    print[ P_Cartesian ] 0
end
*xyz 0 1
 C        0.9935200000    -0.0991550000     0.0962190000 
 C        2.4411840000    -0.0736820000     0.0321690000 
 C        3.6421300000    -0.0567640000    -0.0327910000 
 C        5.0773340000    -0.0453660000    -0.0734490000 
 O        5.7129780000    -0.4848220000    -1.2743850000 
 C        5.8321440000     0.8828210000    -0.9259360000 
 C        7.1947580000     1.3734550000    -0.5544590000 
 H        0.5742970000     0.9021220000    -0.0303320000 
 H        0.6517410000    -0.4902580000     1.0576550000 
 H        0.5837730000    -0.7377420000    -0.6904120000 
 H        5.5679900000    -0.3952890000     0.8335800000 
 H        5.2388080000     1.5439640000    -1.5565130000 
 H        7.6974090000     0.6593540000     0.1000590000 
 H        7.1286710000     2.3362520000    -0.0415310000 
 H        7.8076630000     1.5085990000    -1.4491630000 
*
