! RI PBE def2-SVP def2-SVP/J NBO PAL2
% maxcore 2000
% output
    # printlevel mini
    print[ P_Basis ] 0
    print[ P_SCFInfo ] 1
    print[ P_SCFIterInfo ] 1
    print[ P_OrbEn ] 0
    print[ P_Cartesian ] 0
end
*xyz 0 1
 C        0.9562170000    -0.0783410000    -0.1889020000 
 C        2.4641880000    -0.0336730000     0.0099300000 
 C        2.9417950000     1.4124240000     0.1015750000 
 C        2.9644240000    -0.8366850000     1.1984460000 
 O        4.3614960000    -0.9655620000     1.2261600000 
 C        2.2866240000    -0.7852360000     2.5344200000 
 C        2.2686560000    -2.0478100000     1.7093710000 
 H        0.6786650000     0.5108910000    -1.0659200000 
 H        0.4226730000     0.3451120000     0.6670090000 
 H        0.5919050000    -1.0942760000    -0.3501070000 
 H        2.9358100000    -0.4913370000    -0.8688430000 
 H        2.5207380000     1.9060700000     0.9829720000 
 H        2.6315660000     1.9805020000    -0.7786500000 
 H        4.0310920000     1.4814860000     0.1576970000 
 H        4.7339470000    -0.1225310000     1.4989400000 
 H        1.3618440000    -0.2305790000     2.6368700000 
 H        2.9270000000    -0.7709870000     3.4076930000 
 H        1.3313860000    -2.3513200000     1.2628160000 
 H        2.9102630000    -2.8581460000     2.0304420000 
*
