! RI PBE def2-SVP def2-SVP/J NBO PAL2
% maxcore 2000
% output
    # printlevel mini
    print[ P_Basis ] 0
    print[ P_SCFInfo ] 1
    print[ P_SCFIterInfo ] 1
    print[ P_OrbEn ] 0
    print[ P_Cartesian ] 0
end
*xyz 0 1
 C        0.9738080000    -0.1114400000    -0.1247380000 
 C        2.4906270000    -0.1095500000    -0.0405010000 
 C        2.9986000000     0.3280980000     1.3258530000 
 C        4.5163930000     0.3171330000     1.4683490000 
 C        5.2165770000     1.3221050000     0.6025010000 
 C        6.5899480000     1.1350930000     0.1474600000 
 O        5.5012760000     0.9533570000    -0.7419130000 
 H        0.6279840000    -0.4364070000    -1.1086500000 
 H        0.5666240000     0.8877190000     0.0555560000 
 H        0.5362290000    -0.7831730000     0.6197200000 
 H        2.9055120000     0.5420100000    -0.8151390000 
 H        2.8746830000    -1.1123700000    -0.2597790000 
 H        2.5680040000    -0.3250390000     2.0937720000 
 H        2.6239140000     1.3360470000     1.5465200000 
 H        4.9112090000    -0.6775000000     1.2342100000 
 H        4.7835960000     0.5282050000     2.5105690000 
 H        4.8611770000     2.3492510000     0.7004790000 
 H        7.1187500000     0.2255380000     0.4245810000 
 H        7.2188890000     1.9988030000    -0.0547510000 
*
