! RI PBE def2-SVP def2-SVP/J NBO PAL2
% maxcore 2000
% output
    # printlevel mini
    print[ P_Basis ] 0
    print[ P_SCFInfo ] 1
    print[ P_SCFIterInfo ] 1
    print[ P_OrbEn ] 0
    print[ P_Cartesian ] 0
end
*xyz 0 1
 C        2.1624010000     2.6010990000     2.4691240000 
 C        2.8843540000     1.9805320000     1.5466190000 
 C        3.0453420000     0.5003600000     1.4240940000 
 C        4.5039390000     0.0405950000     1.4698220000 
 C        5.1537400000     0.2905380000     2.7979420000 
 C        5.2192090000    -0.7410130000     3.8286360000 
 O        6.3617440000    -0.4092660000     3.0565530000 
 H        2.0813520000     3.6816080000     2.4953210000 
 H        1.6209190000     2.0481550000     3.2309480000 
 H        3.4123940000     2.5770750000     0.8030150000 
 H        2.6185400000     0.1771400000     0.4672500000 
 H        2.4707730000     0.0003310000     2.2104480000 
 H        5.0766790000     0.5579970000     0.6913470000 
 H        4.5663100000    -1.0284650000     1.2473780000 
 H        5.1673770000     1.3279990000     3.1295120000 
 H        4.7917940000    -1.7209310000     3.6252960000 
 H        5.2686230000    -0.4603450000     4.8778960000 
*
