! RI PBE def2-SVP def2-SVP/J NBO PAL2
% maxcore 2000
% output
    # printlevel mini
    print[ P_Basis ] 0
    print[ P_SCFInfo ] 1
    print[ P_SCFIterInfo ] 1
    print[ P_OrbEn ] 0
    print[ P_Cartesian ] 0
end
*xyz 0 1
 C        0.9530850000     0.1773820000     0.0109640000 
 C        2.2760630000     0.0056230000     0.0371480000 
 C        2.9688150000    -0.3252710000     1.2370000000 
 C        3.5915610000    -0.6121210000     2.2249160000 
 C        3.1244910000     0.1060640000    -1.1873020000 
 C        2.8485500000     1.0587610000    -2.2547970000 
 O        3.9031390000     1.2838060000    -1.3344750000 
 H        0.3574980000     0.0847950000     0.9105560000 
 H        0.4400310000     0.4074560000    -0.9145990000 
 H        4.1356750000    -0.8595580000     3.1055760000 
 H        3.6667620000    -0.8059750000    -1.4350740000 
 H        2.0047390000     1.7372370000    -2.1630430000 
 H        3.1570810000     0.8252100000    -3.2708810000 
*
