! RI PBE def2-SVP def2-SVP/J NBO PAL2
% maxcore 2000
% output
    # printlevel mini
    print[ P_Basis ] 0
    print[ P_SCFInfo ] 1
    print[ P_SCFIterInfo ] 1
    print[ P_OrbEn ] 0
    print[ P_Cartesian ] 0
end
*xyz 0 1
 C        1.9700110000    -0.9544030000    -0.6771550000 
 C        3.1430200000    -0.6224900000    -0.1378880000 
 C        3.3030640000     0.3402130000     0.9290500000 
 C        4.4782630000     0.6678150000     1.4735270000 
 C        4.6272160000     1.6301230000     2.5676730000 
 C        5.7139500000     1.5183200000     3.5455240000 
 O        5.7721280000     2.4832290000     2.5174600000 
 H        1.8985200000    -1.6798820000    -1.4779640000 
 H        1.0435440000    -0.5070770000    -0.3314670000 
 H        4.0526300000    -1.0906550000    -0.5080230000 
 H        2.3963890000     0.8163610000     1.2992780000 
 H        5.3964300000     0.2131870000     1.1074110000 
 H        3.7150710000     2.1318360000     2.8868040000 
 H        6.4227950000     0.6978010000     3.4580040000 
 H        5.5658810000     1.9076120000     4.5503650000 
*
