! RI PBE def2-SVP def2-SVP/J NBO PAL2
% maxcore 2000
% output
    # printlevel mini
    print[ P_Basis ] 0
    print[ P_SCFInfo ] 1
    print[ P_SCFIterInfo ] 1
    print[ P_OrbEn ] 0
    print[ P_Cartesian ] 0
end
*xyz 0 1
 C        1.7090460000    -1.0180840000    -0.2952650000 
 C        2.8864620000    -0.6561420000     0.2046540000 
 C        3.4359400000     0.7039320000     0.1938590000 
 C        2.6983910000     1.8050650000     0.3306110000 
 C        4.9135670000     0.7833240000     0.0468010000 
 C        5.5463590000     1.2888160000    -1.1744380000 
 O        5.5102400000     2.0617430000     0.0130140000 
 H        1.3646020000    -2.0433440000    -0.2334000000 
 H        1.0578510000    -0.3046880000    -0.7888710000 
 H        3.5245390000    -1.4221250000     0.6427910000 
 H        1.6275190000     1.7468380000     0.4823580000 
 H        3.1643430000     2.7826450000     0.3151200000 
 H        5.4710940000     0.0442320000     0.6237940000 
 H        4.9063920000     1.6454140000    -1.9774730000 
 H        6.5295650000     0.9276750000    -1.4664660000 
*
