! RI PBE def2-SVP def2-SVP/J NBO PAL2
% maxcore 2000
% output
    # printlevel mini
    print[ P_Basis ] 0
    print[ P_SCFInfo ] 1
    print[ P_SCFIterInfo ] 1
    print[ P_OrbEn ] 0
    print[ P_Cartesian ] 0
end
*xyz 0 1
 C        0.8915420000     0.1403710000     0.0050290000 
 C        2.2125060000    -0.0193830000     0.0855600000 
 C        2.9119920000    -0.3433550000     1.2730820000 
 C        3.5482790000    -0.6202950000     2.2598970000 
 C        4.2629590000    -0.9394260000     3.4609010000 
 C        5.2595620000    -2.0169950000     3.4992480000 
 O        5.6609540000    -0.6647980000     3.4921150000 
 H        0.4210860000     0.3856670000    -0.9388320000 
 H        0.2531120000     0.0295760000     0.8732420000 
 H        2.8238180000     0.0989310000    -0.8058160000 
 H        3.7450980000    -0.6986390000     4.3869870000 
 H        5.4628560000    -2.5704860000     2.5867280000 
 H        5.4188340000    -2.5517780000     4.4326480000 
*
