! RI PBE def2-SVP def2-SVP/J NBO PAL2
% maxcore 2000
% output
    # printlevel mini
    print[ P_Basis ] 0
    print[ P_SCFInfo ] 1
    print[ P_SCFIterInfo ] 1
    print[ P_OrbEn ] 0
    print[ P_Cartesian ] 0
end
*xyz 0 1
 C        4.3949540000     2.6083500000    -0.8106300000 
 C        4.0872750000     1.5244840000    -0.3957890000 
 C        3.7181120000     0.2039480000     0.0896080000 
 C        4.3054280000    -0.9394850000    -0.7434980000 
 C        5.8040870000    -0.9704180000    -0.7094590000 
 C        6.5339190000    -1.8082900000     0.2371560000 
 O        6.4196100000    -2.1781770000    -1.1273360000 
 H        4.6641770000     3.5716890000    -1.1741790000 
 H        2.6266460000     0.1233060000     0.0942590000 
 H        4.0403400000     0.1041400000     1.1320120000 
 H        3.9708160000    -0.8417500000    -1.7806260000 
 H        3.9240920000    -1.8924990000    -0.3669240000 
 H        6.2993880000    -0.0713210000    -1.0731670000 
 H        5.9768680000    -2.4319860000     0.9335670000 
 H        7.5314890000    -1.5213030000     0.5600870000 
*
