! RI PBE def2-SVP def2-SVP/J NBO PAL2
% maxcore 2000
% output
    # printlevel mini
    print[ P_Basis ] 0
    print[ P_SCFInfo ] 1
    print[ P_SCFIterInfo ] 1
    print[ P_OrbEn ] 0
    print[ P_Cartesian ] 0
end
*xyz 0 1
 C        0.9723730000    -0.1259040000    -0.0542010000 
 C        2.1636190000     0.0345840000    -0.1060210000 
 C        3.5672530000     0.1998960000    -0.2022820000 
 C        4.2981140000     0.9172350000     0.6533120000 
 C        5.7646350000     1.0679030000     0.5585190000 
 C        6.4631580000     1.2367140000    -0.7107560000 
 O        6.2520960000     2.3429960000     0.1504080000 
 H       -0.0818700000    -0.2615290000     0.0001010000 
 H        4.0552540000    -0.3067380000    -1.0315720000 
 H        3.8132630000     1.4127350000     1.4900900000 
 H        6.3264290000     0.6452940000     1.3924720000 
 H        5.8922770000     1.2573320000    -1.6352830000 
 H        7.4954990000     0.9081820000    -0.8014960000 
*
