! RI PBE def2-SVP def2-SVP/J NBO PAL2
% maxcore 2000
% output
    # printlevel mini
    print[ P_Basis ] 0
    print[ P_SCFInfo ] 1
    print[ P_SCFIterInfo ] 1
    print[ P_OrbEn ] 0
    print[ P_Cartesian ] 0
end
*xyz 0 1
 C        0.5265170000     0.5879970000    -0.6364860000 
 C        1.9125450000     1.1114740000    -0.7939330000 
 C        2.9414020000     0.4215690000    -1.2710060000 
 C        4.3302260000     0.9516280000    -1.4240940000 
 C        4.8038220000     0.9090230000    -2.8521520000 
 C        4.7375880000     2.0750340000    -3.7235320000 
 O        5.9707500000     1.6535030000    -3.1586920000 
 H       -0.1888020000     1.1868990000    -1.2092330000 
 H        0.2040230000     0.6321170000     0.4087360000 
 H        0.4495880000    -0.4478840000    -0.9726910000 
 H        2.0790130000     2.1424710000    -0.4828510000 
 H        2.7794940000    -0.6108420000    -1.5813530000 
 H        5.0260330000     0.3548080000    -0.8202910000 
 H        4.3919760000     1.9805980000    -1.0593750000 
 H        4.7728130000    -0.0731670000    -3.3251340000 
 H        4.3404600000     3.0072290000    -3.3276330000 
 H        4.6515430000     1.9481320000    -4.7998800000 
*
