! RI PBE def2-SVP def2-SVP/J NBO PAL2
% maxcore 2000
% output
    # printlevel mini
    print[ P_Basis ] 0
    print[ P_SCFInfo ] 1
    print[ P_SCFIterInfo ] 1
    print[ P_OrbEn ] 0
    print[ P_Cartesian ] 0
end
*xyz 0 1
 C        0.7676390000    -0.2087820000     0.3927240000 
 C        1.4751980000    -1.0537400000    -0.6121030000 
 C        2.7655240000    -1.0449570000    -0.9589880000 
 C        3.2923540000    -1.9786910000    -2.0053010000 
 C        3.7404870000    -0.1151710000    -0.3450840000 
 C        5.1506130000    -0.4580200000    -0.1332310000 
 O        4.7730850000     0.4023220000    -1.1874380000 
 H        0.3854030000    -0.8247640000     1.2137000000 
 H       -0.1023440000     0.2753440000    -0.0616310000 
 H        1.3913940000     0.5699610000     0.8297320000 
 H        0.8412990000    -1.7788930000    -1.1194350000 
 H        3.8428050000    -1.4306060000    -2.7734960000 
 H        2.4770330000    -2.5246990000    -2.4803970000 
 H        3.9823150000    -2.7139360000    -1.5788090000 
 H        3.3287480000     0.6351650000     0.3229410000 
 H        5.5220760000    -1.4328030000    -0.4375380000 
 H        5.6899720000     0.0120010000     0.6862750000 
*
