! RI PBE def2-SVP def2-SVP/J NBO PAL2
% maxcore 2000
% output
    # printlevel mini
    print[ P_Basis ] 0
    print[ P_SCFInfo ] 1
    print[ P_SCFIterInfo ] 1
    print[ P_OrbEn ] 0
    print[ P_Cartesian ] 0
end
*xyz 0 1
 C        3.7424330000     2.3627980000    -0.2411830000 
 C        3.2268250000     0.9580280000    -0.2025080000 
 C        2.2072610000     0.5588250000    -0.9561170000 
 C        3.9233080000     0.0119320000     0.7358700000 
 C        5.3501100000    -0.2645040000     0.3413850000 
 C        6.4812830000     0.4346610000     0.9436970000 
 O        6.1630770000    -0.8946090000     1.3180520000 
 H        3.1627750000     2.9826660000    -0.9259300000 
 H        4.7899580000     2.3915480000    -0.5564100000 
 H        3.7027260000     2.8180830000     0.7542390000 
 H        1.7030630000     1.2395600000    -1.6335400000 
 H        1.8393440000    -0.4607610000    -0.9166540000 
 H        3.3822280000    -0.9379270000     0.7710380000 
 H        3.9271810000     0.4214640000     1.7528840000 
 H        5.4819450000    -0.6629570000    -0.6646780000 
 H        6.2924020000     1.1878900000     1.7057960000 
 H        7.4074600000     0.5533030000     0.3863490000 
*
