! RI PBE def2-SVP def2-SVP/J NBO PAL2
% maxcore 2000
% output
    # printlevel mini
    print[ P_Basis ] 0
    print[ P_SCFInfo ] 1
    print[ P_SCFIterInfo ] 1
    print[ P_OrbEn ] 0
    print[ P_Cartesian ] 0
end
*xyz 0 1
 C        0.6069170000     0.0004830000    -0.2976200000 
 C        2.0825560000     0.2475090000     0.0108540000 
 C        2.8513140000     0.5567490000    -1.2369170000 
 C        3.8958750000    -0.1281830000    -1.6774230000 
 C        2.2153550000     1.3733720000     1.0069600000 
 C        2.2260060000     1.1307040000     2.4452980000 
 O        3.4196420000     1.4480540000     1.7469810000 
 H        0.4928910000    -0.8299650000    -0.9964840000 
 H        0.1488350000     0.8833210000    -0.7530810000 
 H        0.0501090000    -0.2341200000     0.6127950000 
 H        2.5142530000    -0.6473570000     0.4725890000 
 H        2.5003930000     1.4176140000    -1.8061310000 
 H        4.2775940000    -0.9879180000    -1.1356240000 
 H        4.4110870000     0.1467330000    -2.5904660000 
 H        1.8496670000     2.3417720000     0.6607960000 
 H        2.1609480000     0.1073020000     2.8092170000 
 H        1.8681280000     1.8952500000     3.1306450000 
*
