! RI PBE def2-SVP def2-SVP/J NBO PAL2
% maxcore 2000
% output
    # printlevel mini
    print[ P_Basis ] 0
    print[ P_SCFInfo ] 1
    print[ P_SCFIterInfo ] 1
    print[ P_OrbEn ] 0
    print[ P_Cartesian ] 0
end
*xyz 0 1
 C        0.9732120000     0.1455850000     0.0764530000 
 C        2.4885510000     0.0107510000    -0.0777840000 
 C        2.8137110000    -0.7725090000    -1.3476000000 
 C        3.1193150000     1.3972900000    -0.1399320000 
 C        2.9964570000    -0.7906850000     1.1049640000 
 C        4.2597400000    -0.5627910000     1.7987020000 
 O        3.0251630000    -0.1660350000     2.3779540000 
 H        0.5455980000     0.6826740000    -0.7741920000 
 H        0.7245430000     0.6937020000     0.9881430000 
 H        0.4932170000    -0.8358290000     0.1297410000 
 H        2.4276260000    -0.2515520000    -2.2276060000 
 H        2.3627940000    -1.7689060000    -1.3267410000 
 H        3.8932520000    -0.8921240000    -1.4732620000 
 H        2.6358050000     1.9942060000    -0.9170860000 
 H        4.1839370000     1.3462720000    -0.3812940000 
 H        3.0035830000     1.9219360000     0.8111160000 
 H        2.5988460000    -1.8074600000     1.1365650000 
 H        4.9073960000     0.2541440000     1.4939340000 
 H        4.7577540000    -1.3937700000     2.2928140000 
*
