! RI PBE def2-SVP def2-SVP/J NBO PAL2
% maxcore 2000
% output
    # printlevel mini
    print[ P_Basis ] 0
    print[ P_SCFInfo ] 1
    print[ P_SCFIterInfo ] 1
    print[ P_OrbEn ] 0
    print[ P_Cartesian ] 0
end
*xyz 0 1
 C        1.1056240000     0.3000120000     0.1540510000 
 C        2.6126410000     0.0468210000     0.0575290000 
 C        3.0892080000     0.2122850000    -1.3088240000 
 C        3.4621430000     0.3409710000    -2.4425120000 
 C        3.3511980000     0.9184630000     1.0537140000 
 C        4.6382040000     1.5496720000     0.7959870000 
 O        3.4323480000     2.3014910000     0.7758050000 
 H        0.5579380000    -0.3561620000    -0.5229890000 
 H        0.8829460000     1.3348160000    -0.1095500000 
 H        0.7569060000     0.1175020000     1.1732850000 
 H        2.8111750000    -0.9926330000     0.3520850000 
 H        3.7907980000     0.4570300000    -3.4481370000 
 H        3.0927630000     0.6911030000     2.0885660000 
 H        5.1075520000     1.4116790000    -0.1738720000 
 H        5.3042550000     1.7647520000     1.6280620000 
*
