! RI PBE def2-SVP def2-SVP/J NBO PAL2
% maxcore 2000
% output
    # printlevel mini
    print[ P_Basis ] 0
    print[ P_SCFInfo ] 1
    print[ P_SCFIterInfo ] 1
    print[ P_OrbEn ] 0
    print[ P_Cartesian ] 0
end
*xyz 0 1
 C        0.8485610000     0.0004180000    -0.0876430000 
 C        2.2989290000     0.0118430000    -0.0515220000 
 C        3.5005400000     0.0280640000    -0.0265740000 
 C        4.9547060000     0.0537350000     0.0255270000 
 C        5.4881350000     0.8249420000     1.2062470000 
 C        6.7868200000     1.4852680000     1.1544340000 
 O        5.5823970000     2.2293140000     1.0622050000 
 H        0.4334660000     0.6189200000     0.7120640000 
 H        0.4585010000    -1.0131720000     0.0346960000 
 H        0.4775990000     0.3907940000    -1.0386550000 
 H        5.3560580000     0.4983710000    -0.8910980000 
 H        5.3377480000    -0.9726350000     0.0766020000 
 H        5.1113990000     0.5030470000     2.1758240000 
 H        7.3724860000     1.4358460000     0.2388320000 
 H        7.3576640000     1.6304470000     2.0681610000 
*
