! RI PBE def2-SVP def2-SVP/J NBO PAL2
% maxcore 2000
% output
    # printlevel mini
    print[ P_Basis ] 0
    print[ P_SCFInfo ] 1
    print[ P_SCFIterInfo ] 1
    print[ P_OrbEn ] 0
    print[ P_Cartesian ] 0
end
*xyz 0 1
 C        3.1782360000     0.9418320000    -1.8916130000 
 C        2.5776420000    -0.3172010000    -1.2876940000 
 C        3.3478580000    -0.8828870000    -0.0958670000 
 C        2.5983770000    -2.0438990000     0.5450720000 
 C        4.7281860000    -1.3280720000    -0.4975400000 
 C        5.9201460000    -0.5090340000    -0.3050390000 
 O        5.6424480000    -1.6012860000     0.5548410000 
 H        2.5568820000     1.3214770000    -2.7058170000 
 H        4.1766630000     0.7610940000    -2.2959420000 
 H        3.2634650000     1.7352880000    -1.1434860000 
 H        2.4964430000    -1.0951610000    -2.0572250000 
 H        1.5519230000    -0.1121040000    -0.9634820000 
 H        3.4682640000    -0.0897830000     0.6534690000 
 H        2.4452520000    -2.8538900000    -0.1752680000 
 H        1.6151530000    -1.7256820000     0.9001640000 
 H        3.1551520000    -2.4473390000     1.3928500000 
 H        4.7544170000    -2.0706360000    -1.2984310000 
 H        5.8179760000     0.4746750000     0.1481070000 
 H        6.7810870000    -0.6364900000    -0.9573890000 
*
