! RI PBE def2-SVP def2-SVP/J NBO PAL2
% maxcore 2000
% output
    # printlevel mini
    print[ P_Basis ] 0
    print[ P_SCFInfo ] 1
    print[ P_SCFIterInfo ] 1
    print[ P_OrbEn ] 0
    print[ P_Cartesian ] 0
end
*xyz 0 1
 C        1.0494370000    -0.1668690000    -0.2820840000 
 C        2.4932510000     0.0737500000     0.1514540000 
 C        3.0698310000    -1.0456660000     0.8772120000 
 C        3.5323110000    -1.9879130000     1.4658790000 
 C        4.1054660000    -3.0818870000     2.1981490000 
 C        3.5092710000    -4.4215650000     2.1788570000 
 O        4.6887490000    -4.1485620000     1.4530450000 
 H        0.6657300000     0.6998790000    -0.8241080000 
 H        0.4077680000    -0.3426960000     0.5829380000 
 H        0.9808100000    -1.0383680000    -0.9351230000 
 H        2.5500990000     0.9682470000     0.7810190000 
 H        3.1162890000     0.2811720000    -0.7253460000 
 H        4.6785890000    -2.7998870000     3.0791590000 
 H        2.6186240000    -4.5858990000     1.5785290000 
 H        3.6285740000    -5.0656350000     3.0470190000 
*
