! RI PBE def2-SVP def2-SVP/J NBO PAL2
% maxcore 2000
% output
    # printlevel mini
    print[ P_Basis ] 0
    print[ P_SCFInfo ] 1
    print[ P_SCFIterInfo ] 1
    print[ P_OrbEn ] 0
    print[ P_Cartesian ] 0
end
*xyz 0 1
 C        1.0136990000    -0.1960010000     0.3374810000 
 C        2.3381650000    -0.0862240000     0.2679080000 
 C        3.1019780000     0.2048990000    -0.9964440000 
 C        3.4475470000     1.6134930000    -1.1206920000 
 C        3.7170180000     2.7780820000    -1.2213420000 
 C        3.1179220000    -0.2850280000     1.5054730000 
 O        4.3198900000    -0.3032870000     1.5532010000 
 H        0.3758380000    -0.0850740000    -0.5320680000 
 H        0.5273520000    -0.4012420000     1.2860620000 
 H        2.5124520000    -0.1030610000    -1.8642880000 
 H        4.0243440000    -0.3847300000    -0.9920150000 
 H        3.9661940000     3.8090140000    -1.3083900000 
 H        2.5021110000    -0.4396400000     2.4168050000 
*
