! RI PBE def2-SVP def2-SVP/J NBO PAL2
% maxcore 2000
% output
    # printlevel mini
    print[ P_Basis ] 0
    print[ P_SCFInfo ] 1
    print[ P_SCFIterInfo ] 1
    print[ P_OrbEn ] 0
    print[ P_Cartesian ] 0
end
*xyz 0 1
 C        1.1503600000     0.4381300000     0.2629400000 
 C        2.3185090000    -0.0898330000    -0.0897930000 
 C        2.8925770000    -1.3273040000     0.4551770000 
 C        2.1486280000    -2.3980380000     0.7322380000 
 C        4.3816450000    -1.3360730000     0.6779410000 
 C        4.7975300000    -0.4429750000     1.8200210000 
 O        5.5874670000    -0.7586560000     2.6651740000 
 H        0.7802900000     1.3443560000    -0.2014370000 
 H        0.5347220000    -0.0127030000     1.0338660000 
 H        2.9262710000     0.4312170000    -0.8285720000 
 H        1.0846840000    -2.4099750000     0.5270870000 
 H        2.5870230000    -3.2964660000     1.1513150000 
 H        4.8823960000    -0.9442190000    -0.2194030000 
 H        4.7636920000    -2.3398270000     0.8653940000 
 H        4.3184060000     0.5594550000     1.8355620000 
*
