! RI PBE def2-SVP def2-SVP/J NBO PAL2
% maxcore 2000
% output
    # printlevel mini
    print[ P_Basis ] 0
    print[ P_SCFInfo ] 1
    print[ P_SCFIterInfo ] 1
    print[ P_OrbEn ] 0
    print[ P_Cartesian ] 0
end
*xyz 0 1
 C        0.8995990000    -0.0239500000    -0.1201710000 
 C        2.2049790000    -0.1550280000     0.1135680000 
 C        2.9177320000     0.5610620000     1.1082150000 
 C        3.5439580000     1.1488610000     1.9543160000 
 C        4.3165670000     1.8861100000     2.9335140000 
 C        5.4877690000     2.6262940000     2.3111080000 
 O        5.8506690000     3.7066610000     2.6736200000 
 H        0.4154690000    -0.6053640000    -0.8948470000 
 H        0.2873750000     0.6618090000     0.4531020000 
 H        2.7889040000    -0.8529450000    -0.4815620000 
 H        4.7455660000     1.1918020000     3.6704650000 
 H        3.7067770000     2.6047280000     3.4865020000 
 H        6.0030280000     2.0818500000     1.4930680000 
*
