! RI PBE def2-SVP def2-SVP/J NBO PAL2
% maxcore 2000
% output
    # printlevel mini
    print[ P_Basis ] 0
    print[ P_SCFInfo ] 1
    print[ P_SCFIterInfo ] 1
    print[ P_OrbEn ] 0
    print[ P_Cartesian ] 0
end
*xyz 0 1
 C        0.8273790000     0.1422690000    -1.2845220000 
 C        1.7816610000    -0.1161730000    -0.4017570000 
 C        3.1959020000     0.3728930000    -0.4960710000 
 C        4.1816450000    -0.7617060000    -0.5485140000 
 C        5.0250130000    -1.0699500000     0.4335900000 
 C        4.1888790000    -1.5807950000    -1.7907470000 
 O        4.8898140000    -2.5406090000    -1.9797830000 
 H       -0.1784750000    -0.2411790000    -1.1597650000 
 H        1.0168650000     0.7514890000    -2.1632300000 
 H        1.5559380000    -0.7363090000     0.4635240000 
 H        3.4277250000     1.0025240000     0.3687510000 
 H        3.3009180000     1.0004240000    -1.3883710000 
 H        5.0664440000    -0.4968060000     1.3531930000 
 H        5.6977050000    -1.9132420000     0.3231630000 
 H        3.4847770000    -1.2356220000    -2.5768590000 
*
