! RI PBE def2-SVP def2-SVP/J NBO PAL2
% maxcore 2000
% output
    # printlevel mini
    print[ P_Basis ] 0
    print[ P_SCFInfo ] 1
    print[ P_SCFIterInfo ] 1
    print[ P_OrbEn ] 0
    print[ P_Cartesian ] 0
end
*xyz 0 1
 C        1.3203180000    -0.6998150000     0.7764520000 
 C        2.2361880000    -0.0209060000     0.1051830000 
 C        3.0303620000     1.1145280000     0.6871850000 
 C        4.4638060000     0.9233020000     0.5567030000 
 C        5.6472210000     0.7423730000     0.4105900000 
 C        7.0688840000     0.5614890000     0.2974680000 
 O        7.6097360000    -0.0378030000    -0.5968400000 
 H        0.7623220000    -1.5033770000     0.3109760000 
 H        1.0942840000    -0.4791830000     1.8150780000 
 H        2.4542000000    -0.2678450000    -0.9300930000 
 H        2.7693320000     1.2606450000     1.7399160000 
 H        2.7726340000     2.0484880000     0.1696130000 
 H        7.6548030000     1.0251940000     1.1144780000 
*
