! RI PBE def2-SVP def2-SVP/J NBO PAL2
% maxcore 2000
% output
    # printlevel mini
    print[ P_Basis ] 0
    print[ P_SCFInfo ] 1
    print[ P_SCFIterInfo ] 1
    print[ P_OrbEn ] 0
    print[ P_Cartesian ] 0
end
*xyz 0 1
 C        1.5540870000    -0.2436660000    -0.8969540000 
 C        2.4243360000     0.1829590000     0.0070730000 
 C        3.0422410000    -0.6601960000     1.0724510000 
 C        4.5653510000    -0.6960840000     0.9845090000 
 C        5.1914920000    -1.5177570000     2.0924390000 
 C        6.6890880000    -1.5672930000     2.0696600000 
 O        7.3841480000    -1.0065620000     1.2676330000 
 H        1.1455700000     0.4200760000    -1.6500840000 
 H        1.2159970000    -1.2755620000    -0.9152560000 
 H        2.7380240000     1.2259140000    -0.0150070000 
 H        2.6376890000    -1.6765290000     1.0156010000 
 H        2.7552070000    -0.2637900000     2.0557750000 
 H        4.9655780000     0.3216860000     1.0214670000 
 H        4.8704090000    -1.0986980000     0.0147500000 
 H        4.8372670000    -2.5582090000     2.0758230000 
 H        4.9014040000    -1.1454330000     3.0854830000 
 H        7.1462020000    -2.1811760000     2.8775370000 
*
