! RI PBE def2-SVP def2-SVP/J NBO PAL2
% maxcore 2000
% output
    # printlevel mini
    print[ P_Basis ] 0
    print[ P_SCFInfo ] 1
    print[ P_SCFIterInfo ] 1
    print[ P_OrbEn ] 0
    print[ P_Cartesian ] 0
end
*xyz 0 1
 C        0.8011860000    -0.5780180000     0.4921910000 
 C        2.2616160000    -0.8673620000     0.5595860000 
 C        3.0677650000    -0.9885070000    -0.4883710000 
 C        4.5356890000    -1.2625950000    -0.4289490000 
 C        4.9613670000    -2.5095940000    -1.2039220000 
 C        4.4338260000    -3.7978920000    -0.6017750000 
 O        4.8791320000    -4.9493570000    -1.2900150000 
 H        0.2178420000    -1.3688300000     0.9747370000 
 H        0.4596830000    -0.4850250000    -0.5407560000 
 H        0.5579190000     0.3522480000     1.0157520000 
 H        2.6866940000    -0.9825190000     1.5564550000 
 H        2.6438140000    -0.8751960000    -1.4874960000 
 H        4.8511530000    -1.3507640000     0.6165490000 
 H        5.0760360000    -0.4028000000    -0.8430160000 
 H        6.0532710000    -2.5662800000    -1.2455110000 
 H        4.6119990000    -2.4269860000    -2.2418950000 
 H        3.3375510000    -3.7689740000    -0.5471520000 
 H        4.8021270000    -3.9060240000     0.4225290000 
 H        4.5461400000    -4.9082360000    -2.1899190000 
*
