! RI PBE def2-SVP def2-SVP/J NBO PAL2
% maxcore 2000
% output
    # printlevel mini
    print[ P_Basis ] 0
    print[ P_SCFInfo ] 1
    print[ P_SCFIterInfo ] 1
    print[ P_OrbEn ] 0
    print[ P_Cartesian ] 0
end
*xyz 0 1
 C        0.8443650000     0.0040920000    -0.4511560000 
 C        2.2506870000    -0.1045000000     0.0335890000 
 C        2.6852120000    -0.3182590000     1.2799240000 
 C        1.7980620000    -0.5005450000     2.4720900000 
 C        4.1606810000    -0.4217080000     1.5544390000 
 C        4.6213630000    -1.8726460000     1.6709120000 
 O        4.4109080000    -2.5928270000     0.4804850000 
 H        0.6585990000    -0.7009350000    -1.2675080000 
 H        0.6530420000     1.0030510000    -0.8570920000 
 H        0.1055360000    -0.1847970000     0.3272130000 
 H        3.0124240000     0.0377320000    -0.7319660000 
 H        0.7398700000    -0.5431060000     2.2191510000 
 H        1.9425410000     0.3244780000     3.1781220000 
 H        2.0511580000    -1.4178940000     3.0125980000 
 H        4.4091270000     0.0996320000     2.4863980000 
 H        4.7262370000     0.0531750000     0.7480910000 
 H        4.1195500000    -2.3630380000     2.5183460000 
 H        5.6955020000    -1.9034870000     1.8689260000 
 H        3.5240370000    -2.3722290000     0.1718270000 
*
