! RI PBE def2-SVP def2-SVP/J NBO PAL2
% maxcore 2000
% output
    # printlevel mini
    print[ P_Basis ] 0
    print[ P_SCFInfo ] 1
    print[ P_SCFIterInfo ] 1
    print[ P_OrbEn ] 0
    print[ P_Cartesian ] 0
end
*xyz 0 1
 C        0.4410590000     0.1531540000     0.3177570000 
 C        1.9060730000     0.2560990000     0.0598380000 
 C        2.5291750000     0.2737460000    -1.1176950000 
 C        1.8386370000     0.1534220000    -2.4428300000 
 C        4.0376120000     0.3908850000    -1.1993990000 
 C        4.4816880000     1.5530500000    -2.0792770000 
 O        4.6735240000     0.4594720000     0.0579970000 
 H        0.0882760000     1.0191840000     0.8875560000 
 H        0.2158770000    -0.7284950000     0.9268740000 
 H       -0.1556490000     0.0948470000    -0.5925710000 
 H        2.5303690000     0.3001530000     0.9482760000 
 H        0.8303620000    -0.2476560000    -2.3483850000 
 H        2.3975500000    -0.5115960000    -3.1092690000 
 H        1.7647200000     1.1196210000    -2.9518770000 
 H        4.4144790000    -0.5392950000    -1.6452190000 
 H        4.1065950000     1.4618150000    -3.0999490000 
 H        4.1146830000     2.5004780000    -1.6704660000 
 H        5.5717910000     1.5883150000    -2.1152250000 
 H        4.4501700000     1.3073310000     0.4544450000 
*
