! RI PBE def2-SVP def2-SVP/J NBO PAL2
% maxcore 2000
% output
    # printlevel mini
    print[ P_Basis ] 0
    print[ P_SCFInfo ] 1
    print[ P_SCFIterInfo ] 1
    print[ P_OrbEn ] 0
    print[ P_Cartesian ] 0
end
*xyz 0 1
 C        0.9384010000     0.0376770000     0.1124360000 
 C        2.4087540000    -0.0038400000    -0.1020450000 
 C        3.1079720000     0.4993010000    -1.1275500000 
 C        2.5283050000     1.2260100000    -2.2975160000 
 C        4.5900140000     0.3546390000    -1.1622780000 
 C        5.3144370000    -0.3574730000    -0.0442570000 
 O        5.2155110000     0.8141470000    -2.0943220000 
 H        0.5387080000    -0.9782050000     0.1996750000 
 H        0.3994610000     0.5479720000    -0.6839400000 
 H        0.7067950000     0.5390770000     1.0581350000 
 H        2.9638990000    -0.5098340000     0.6830080000 
 H        1.4449460000     1.3128860000    -2.2385330000 
 H        2.7900420000     0.7166830000    -3.2280170000 
 H        2.9578030000     2.2278370000    -2.3724990000 
 H        4.9765810000    -1.3921750000     0.0515530000 
 H        5.1446840000     0.1357250000     0.9158920000 
 H        6.3788890000    -0.3467960000    -0.2701400000 
*
