! RI PBE def2-SVP def2-SVP/J NBO PAL2
% maxcore 2000
% output
    # printlevel mini
    print[ P_Basis ] 0
    print[ P_SCFInfo ] 1
    print[ P_SCFIterInfo ] 1
    print[ P_OrbEn ] 0
    print[ P_Cartesian ] 0
end
*xyz 0 1
 C        0.7754460000     0.1378870000     0.1510730000 
 C        2.2198540000    -0.0472780000    -0.1646200000 
 C        2.7615360000    -0.7680360000    -1.1486050000 
 C        2.0000320000    -1.5636800000    -2.1614090000 
 C        4.2623010000    -0.8552810000    -1.2866300000 
 C        4.7368100000    -2.1841160000    -0.7561120000 
 O        5.1658540000    -3.0804830000    -1.4282830000 
 H        0.5605640000    -0.1810060000     1.1760620000 
 H        0.1165650000    -0.4162950000    -0.5164460000 
 H        0.5000420000     1.1958520000     0.0915810000 
 H        2.9049170000     0.4876550000     0.4913290000 
 H        0.9277630000    -1.5748950000    -1.9738400000 
 H        2.3523110000    -2.5996370000    -2.1879590000 
 H        2.1641140000    -1.1575920000    -3.1652240000 
 H        4.7367390000    -0.0650090000    -0.6968360000 
 H        4.5743020000    -0.7674450000    -2.3305670000 
 H        4.6265510000    -2.3015290000     0.3446740000 
*
