! RI PBE def2-SVP def2-SVP/J NBO PAL2
% maxcore 2000
% output
    # printlevel mini
    print[ P_Basis ] 0
    print[ P_SCFInfo ] 1
    print[ P_SCFIterInfo ] 1
    print[ P_OrbEn ] 0
    print[ P_Cartesian ] 0
end
*xyz 0 1
 C        0.7282330000    -0.1059170000     0.1088910000 
 C        2.1921040000     0.1283060000     0.1705880000 
 C        3.0809430000    -0.6868110000     0.7497590000 
 C        4.4930150000    -0.4146120000     0.7831020000 
 C        5.4226650000    -1.2000480000     1.3508940000 
 C        6.8292190000    -0.8259590000     1.3258680000 
 O        7.7245780000    -1.4745940000     1.8116920000 
 H        0.3833180000    -0.1421960000    -0.9297530000 
 H        0.1823100000     0.7150120000     0.5854510000 
 H        0.4461590000    -1.0387760000     0.5992290000 
 H        2.5604540000     1.0405330000    -0.2967180000 
 H        2.7385030000    -1.6044280000     1.2235480000 
 H        4.8241110000     0.5075410000     0.3052440000 
 H        5.1647800000    -2.1325000000     1.8442980000 
 H        7.0409080000     0.1369370000     0.8090880000 
*
