! RI PBE def2-SVP def2-SVP/J NBO PAL2
% maxcore 2000
% output
    # printlevel mini
    print[ P_Basis ] 0
    print[ P_SCFInfo ] 1
    print[ P_SCFIterInfo ] 1
    print[ P_OrbEn ] 0
    print[ P_Cartesian ] 0
end
*xyz 0 1
 C        0.9053260000     1.7715920000    -1.3633600000 
 C        2.3849210000     1.6863940000    -1.4902130000 
 C        3.1673090000     0.9386820000    -0.7095630000 
 C        4.6203880000     0.8469170000    -0.7912780000 
 C        5.3031590000     0.0438080000     0.0322550000 
 C        5.3620490000     1.6763410000    -1.8043780000 
 O        5.0359540000     1.3602100000    -3.1453460000 
 H        0.4133250000     1.4588770000    -2.2903980000 
 H        0.5860380000     2.8026510000    -1.1781090000 
 H        0.5326080000     1.1468660000    -0.5492900000 
 H        2.8386500000     2.2646300000    -2.2907400000 
 H        2.7037490000     0.3359730000     0.0702680000 
 H        4.8005050000    -0.5589520000     0.7811720000 
 H        6.3842510000    -0.0252630000    -0.0133210000 
 H        6.4402690000     1.5730790000    -1.6295420000 
 H        5.1089760000     2.7334700000    -1.6823530000 
 H        5.1201320000     0.4086330000    -3.2506030000 
*
