! RI PBE def2-SVP def2-SVP/J NBO PAL2
% maxcore 2000
% output
    # printlevel mini
    print[ P_Basis ] 0
    print[ P_SCFInfo ] 1
    print[ P_SCFIterInfo ] 1
    print[ P_OrbEn ] 0
    print[ P_Cartesian ] 0
end
*xyz 0 1
 C        0.8439110000     0.1601890000     0.2746200000 
 C        2.2725220000    -0.1386510000    -0.0077880000 
 C        3.3039560000     0.5020240000     0.5411700000 
 C        4.7268090000     0.2571350000     0.3063900000 
 C        5.2629380000    -0.6609630000    -0.5045580000 
 C        5.6639030000     1.1373020000     1.0631690000 
 O        6.8633080000     1.0887320000     1.0031750000 
 H        0.3306590000    -0.7204090000     0.6750260000 
 H        0.3124950000     0.4373320000    -0.6418910000 
 H        0.7373640000     0.9752190000     0.9926210000 
 H        2.4617410000    -0.9424170000    -0.7170500000 
 H        3.0857870000     1.3026550000     1.2476440000 
 H        4.6623870000    -1.3438940000    -1.0931280000 
 H        6.3414240000    -0.7320940000    -0.5824760000 
 H        5.1649070000     1.8814610000     1.7218750000 
*
