! RI PBE def2-SVP def2-SVP/J NBO PAL2
% maxcore 2000
% output
    # printlevel mini
    print[ P_Basis ] 0
    print[ P_SCFInfo ] 1
    print[ P_SCFIterInfo ] 1
    print[ P_OrbEn ] 0
    print[ P_Cartesian ] 0
end
*xyz 0 1
 C        0.9264680000    -0.4128950000    -1.5398600000 
 C        2.3950570000    -0.4800710000    -1.2925350000 
 C        3.2112430000     0.5670660000    -1.2950740000 
 C        4.6999960000     0.5683160000    -1.0702700000 
 C        5.0425700000     1.4711500000     0.1055840000 
 C        5.2889190000    -0.8190480000    -0.8656100000 
 O        5.3198070000     1.1899570000    -2.2021830000 
 H        0.3647860000    -0.7876680000    -0.6780670000 
 H        0.6412500000    -1.0377690000    -2.3923160000 
 H        0.6000900000     0.6091500000    -1.7408450000 
 H        2.8000840000    -1.4697880000    -1.0919280000 
 H        2.8023820000     1.5570360000    -1.4971810000 
 H        4.6305210000     1.0700160000     1.0330280000 
 H        4.6362940000     2.4714090000    -0.0553870000 
 H        6.1271550000     1.5540860000     0.2046660000 
 H        4.8889070000    -1.2987400000     0.0303250000 
 H        6.3715920000    -0.7347120000    -0.7585150000 
 H        5.0808790000    -1.4667330000    -1.7214940000 
 H        5.0398100000     0.7076380000    -2.9858380000 
*
