! RI PBE def2-SVP def2-SVP/J NBO PAL2
% maxcore 2000
% output
    # printlevel mini
    print[ P_Basis ] 0
    print[ P_SCFInfo ] 1
    print[ P_SCFIterInfo ] 1
    print[ P_OrbEn ] 0
    print[ P_Cartesian ] 0
end
*xyz 0 1
 C        0.7041300000     0.3373610000     0.4460400000 
 C        2.1705410000     0.1864670000     0.6583590000 
 C        3.0927400000     1.0586820000     0.2673110000 
 C        4.5698900000     0.9173580000     0.4951450000 
 C        5.3901690000     1.1137350000    -0.7677780000 
 C        4.9676400000     1.8874560000     1.5892440000 
 O        5.7634780000     2.7760900000     1.4669210000 
 H        0.3040490000    -0.4958640000    -0.1401710000 
 H        0.4684890000     1.2671530000    -0.0747170000 
 H        0.1674880000     0.3341490000     1.4000100000 
 H        2.4953010000    -0.7199240000     1.1686190000 
 H        2.7820010000     1.9672560000    -0.2481340000 
 H        4.7468930000    -0.0814320000     0.9188830000 
 H        5.2126670000     2.1036150000    -1.1927400000 
 H        5.1245010000     0.3644580000    -1.5152290000 
 H        6.4577700000     1.0389970000    -0.5550960000 
 H        4.4373350000     1.7240350000     2.5529320000 
*
