! RI PBE def2-SVP def2-SVP/J NBO PAL2
% maxcore 2000
% output
    # printlevel mini
    print[ P_Basis ] 0
    print[ P_SCFInfo ] 1
    print[ P_SCFIterInfo ] 1
    print[ P_OrbEn ] 0
    print[ P_Cartesian ] 0
end
*xyz 0 1
 C        0.9145980000    -0.0158860000    -1.0746070000 
 C        2.4028010000    -0.0376350000    -1.1494070000 
 C        3.1802540000    -1.0238280000    -0.7097210000 
 C        4.6706270000    -1.0359060000    -0.8114410000 
 C        5.1863630000    -1.9706400000    -1.9152730000 
 C        4.8694630000    -3.4342680000    -1.6616590000 
 O        4.7105130000    -1.5536430000    -3.1792960000 
 H        0.5646660000     0.8310150000    -0.4757190000 
 H        0.5221650000    -0.9326260000    -0.6302370000 
 H        0.4690790000     0.1011910000    -2.0675160000 
 H        2.8791170000     0.8411320000    -1.5840500000 
 H        2.7049250000    -1.8974880000    -0.2652750000 
 H        5.1130380000    -1.3430210000     0.1426960000 
 H        5.0312940000    -0.0273440000    -1.0318880000 
 H        6.2733900000    -1.8517580000    -1.9680500000 
 H        3.7900730000    -3.6039260000    -1.6256470000 
 H        5.3007360000    -3.7742390000    -0.7159910000 
 H        5.2774550000    -4.0463600000    -2.4676480000 
 H        3.7619620000    -1.4037800000    -3.0891790000 
*
