! RI PBE def2-SVP def2-SVP/J NBO PAL2
% maxcore 2000
% output
    # printlevel mini
    print[ P_Basis ] 0
    print[ P_SCFInfo ] 1
    print[ P_SCFIterInfo ] 1
    print[ P_OrbEn ] 0
    print[ P_Cartesian ] 0
end
*xyz 0 1
 C        3.3764430000     0.6528620000    -1.9873760000 
 C        2.8492260000     0.6444630000    -0.5862870000 
 C        1.8791530000     1.4666240000    -0.1974700000 
 C        3.4587150000    -0.3551970000     0.3578930000 
 C        4.9592420000    -0.1751810000     0.5925420000 
 C        5.3067260000     1.1497910000     1.2430090000 
 O        6.6971300000     1.3284270000     1.4167070000 
 H        2.8352810000     1.3638540000    -2.6125270000 
 H        3.2917980000    -0.3405470000    -2.4409710000 
 H        4.4377860000     0.9187650000    -2.0141290000 
 H        1.4290580000     2.1774690000    -0.8821730000 
 H        1.5004300000     1.4537520000     0.8190230000 
 H        3.2930320000    -1.3624230000    -0.0438760000 
 H        2.9318880000    -0.3103030000     1.3161650000 
 H        5.5118650000    -0.2616950000    -0.3479170000 
 H        5.3120880000    -0.9925060000     1.2336210000 
 H        4.7736450000     1.2449490000     2.2009230000 
 H        4.9756980000     1.9793610000     0.6142430000 
 H        7.0267050000     0.6125570000     1.9659090000 
*
