! RI PBE def2-SVP def2-SVP/J NBO PAL2
% maxcore 2000
% output
    # printlevel mini
    print[ P_Basis ] 0
    print[ P_SCFInfo ] 1
    print[ P_SCFIterInfo ] 1
    print[ P_OrbEn ] 0
    print[ P_Cartesian ] 0
end
*xyz 0 1
 C        1.1007870000     0.0031890000    -0.1525410000 
 C        2.5920800000     0.0360460000    -0.0020180000 
 C        3.1982800000     0.7381980000     0.9532240000 
 C        3.3762150000    -0.7669640000    -0.9656370000 
 C        4.2763070000    -1.6816680000    -0.6015390000 
 C        3.1639250000    -0.5204030000    -2.4209450000 
 O        3.6786800000    -1.1544270000    -3.3044160000 
 H        0.6157430000     0.6460450000     0.5825110000 
 H        0.7242440000    -1.0166450000    -0.0273880000 
 H        0.7879550000     0.3311240000    -1.1485250000 
 H        2.6294320000     1.3140830000     1.6750710000 
 H        4.2787600000     0.7666500000     1.0315810000 
 H        4.4631900000    -1.9070290000     0.4415230000 
 H        4.8330730000    -2.2210700000    -1.3598300000 
 H        2.4971480000     0.3328710000    -2.6623710000 
*
