! RI PBE def2-SVP def2-SVP/J NBO PAL2
% maxcore 2000
% output
    # printlevel mini
    print[ P_Basis ] 0
    print[ P_SCFInfo ] 1
    print[ P_SCFIterInfo ] 1
    print[ P_OrbEn ] 0
    print[ P_Cartesian ] 0
end
*xyz 0 1
 C        1.0448850000    -0.1906190000     0.2609720000 
 C        2.5178190000     0.0353550000     0.0816810000 
 C        3.1791920000     1.0228690000     0.6907770000 
 C        3.1898050000    -0.8697820000    -0.7908060000 
 C        3.7204790000    -1.6613620000    -1.5304630000 
 C        4.3780180000    -2.5777840000    -2.4521890000 
 O        5.5824130000    -2.0737460000    -2.9896560000 
 H        0.6200160000     0.5450360000     0.9446280000 
 H        0.8547210000    -1.1910890000     0.6582460000 
 H        0.5246260000    -0.1229650000    -0.6980610000 
 H        2.6612290000     1.7131300000     1.3463730000 
 H        4.2432330000     1.1622670000     0.5480520000 
 H        3.6714330000    -2.8519550000    -3.2485060000 
 H        4.6423840000    -3.5013500000    -1.9295430000 
 H        5.4105480000    -1.1883960000    -3.3216940000 
*
