! RI PBE def2-SVP def2-SVP/J NBO PAL2
% maxcore 2000
% output
    # printlevel mini
    print[ P_Basis ] 0
    print[ P_SCFInfo ] 1
    print[ P_SCFIterInfo ] 1
    print[ P_OrbEn ] 0
    print[ P_Cartesian ] 0
end
*xyz 0 1
 C        0.9553600000    -0.0856650000     0.0789750000 
 C        2.4536570000    -0.0238430000     0.0369800000 
 C        3.1371970000     0.7236790000    -0.8356690000 
 C        3.1510410000    -0.8145890000     0.9905510000 
 C        3.6835010000    -1.5087640000     1.8257000000 
 C        4.3850180000    -2.3085840000     2.7894290000 
 O        3.8488480000    -3.0100220000     3.6108250000 
 H        0.5196360000     0.5536020000    -0.6891970000 
 H        0.5852520000     0.2334240000     1.0563070000 
 H        0.6090120000    -1.1104300000    -0.0754970000 
 H        2.6205430000     1.3323890000    -1.5687520000 
 H        4.2195960000     0.7424950000    -0.8349470000 
 H        5.4878370000    -2.2369010000     2.7271850000 
*
