! RI PBE def2-SVP def2-SVP/J NBO PAL2
% maxcore 2000
% output
    # printlevel mini
    print[ P_Basis ] 0
    print[ P_SCFInfo ] 1
    print[ P_SCFIterInfo ] 1
    print[ P_OrbEn ] 0
    print[ P_Cartesian ] 0
end
*xyz 0 1
 C        1.2922690000    -0.0937510000    -0.0009560000 
 C        2.7836790000    -0.2164650000    -0.0049820000 
 C        3.5082960000     1.0565720000    -0.0527620000 
 C        4.5264820000     1.3358870000    -0.8613810000 
 C        3.3802090000    -1.4226450000     0.0340110000 
 C        4.8119260000    -1.6629350000     0.1909660000 
 O        5.3118780000    -2.7610670000     0.1021380000 
 H        0.9447290000     0.4262110000    -0.8987250000 
 H        0.9643620000     0.5062260000     0.8543170000 
 H        0.8070110000    -1.0679970000     0.0525420000 
 H        3.1134930000     1.8455650000     0.5856260000 
 H        4.9064060000     0.6081310000    -1.5697060000 
 H        4.9924300000     2.3143120000    -0.8572970000 
 H        2.7708140000    -2.3218250000     0.0076640000 
 H        5.4307150000    -0.7800100000     0.4400450000 
*
