! RI PBE def2-SVP def2-SVP/J NBO PAL2
% maxcore 2000
% output
    # printlevel mini
    print[ P_Basis ] 0
    print[ P_SCFInfo ] 1
    print[ P_SCFIterInfo ] 1
    print[ P_OrbEn ] 0
    print[ P_Cartesian ] 0
end
*xyz 0 1
 C        1.2105420000    -0.3840870000     0.1173740000 
 C        2.4858780000     0.4462310000     0.0862340000 
 C        2.6424100000     1.1665520000    -1.2222990000 
 C        3.6919810000     1.0727510000    -2.0266000000 
 C        2.4872100000     1.5037270000     1.1928960000 
 C        3.8354910000     1.9335190000     1.6988930000 
 O        1.4609310000     1.9718360000     1.6166020000 
 H        1.2135590000    -1.1159120000    -0.6923180000 
 H        0.3357340000     0.2580620000     0.0082040000 
 H        1.1133310000    -0.9142810000     1.0670780000 
 H        3.3640940000    -0.1931910000     0.2293310000 
 H        1.8066990000     1.8075030000    -1.4981440000 
 H        4.5400840000     0.4396220000    -1.7835360000 
 H        3.7378170000     1.6184580000    -2.9618780000 
 H        4.5171150000     2.1234500000     0.8665020000 
 H        4.2689740000     1.1206520000     2.2905720000 
 H        3.7400510000     2.8198190000     2.3235900000 
*
