! RI PBE def2-SVP def2-SVP/J NBO PAL2
% maxcore 2000
% output
    # printlevel mini
    print[ P_Basis ] 0
    print[ P_SCFInfo ] 1
    print[ P_SCFIterInfo ] 1
    print[ P_OrbEn ] 0
    print[ P_Cartesian ] 0
end
*xyz 0 1
 C        0.7049720000     0.0568510000     0.3524790000 
 C        2.0768360000    -0.1210910000    -0.2230400000 
 C        2.1088850000    -0.3060090000    -1.7085020000 
 C        3.1577250000    -0.0844080000     0.5623440000 
 C        4.5893250000    -0.2566110000     0.1693800000 
 C        5.1188230000    -1.6240420000     0.5914060000 
 O        4.4269040000    -2.6780110000    -0.0363660000 
 H        0.2094920000     0.9280790000    -0.0898080000 
 H        0.7324020000     0.1918510000     1.4346090000 
 H        0.0693380000    -0.8065770000     0.1284260000 
 H        1.4721030000    -1.1470480000    -2.0021270000 
 H        3.1078350000    -0.4920380000    -2.0984710000 
 H        1.7011740000     0.5783930000    -2.2102610000 
 H        2.9882450000     0.0569690000     1.6295940000 
 H        5.1984050000     0.5141370000     0.6559070000 
 H        4.7287650000    -0.1432480000    -0.9077450000 
 H        5.0668740000    -1.7180120000     1.6865630000 
 H        6.1672430000    -1.7275710000     0.3020590000 
 H        3.4862740000    -2.5098240000     0.0899420000 
*
