! RI PBE def2-SVP def2-SVP/J NBO PAL2
% maxcore 2000
% output
    # printlevel mini
    print[ P_Basis ] 0
    print[ P_SCFInfo ] 1
    print[ P_SCFIterInfo ] 1
    print[ P_OrbEn ] 0
    print[ P_Cartesian ] 0
end
*xyz 0 1
 C        1.0092310000    -0.0526960000     0.8955130000 
 C        2.0258130000     0.3072240000    -0.1446030000 
 C        1.9745220000     1.7558870000    -0.5291440000 
 C        2.9018410000    -0.5532690000    -0.6841240000 
 C        3.0156680000    -2.0057040000    -0.3267180000 
 C        3.8846900000    -0.1089310000    -1.7441040000 
 O        3.2822140000     0.2588820000    -2.9767850000 
 H        1.0174690000    -1.1018240000     1.1825390000 
 H        0.0015860000     0.1930740000     0.5430620000 
 H        1.1702200000     0.5437480000     1.8004110000 
 H        0.9804630000     2.0108680000    -0.9124620000 
 H        2.6973490000     2.0279320000    -1.2945500000 
 H        2.1336200000     2.3859170000     0.3532820000 
 H        2.2679860000    -2.3449580000     0.3871070000 
 H        4.0020040000    -2.2187460000     0.1006050000 
 H        2.9304640000    -2.6325180000    -1.2216970000 
 H        4.6135870000    -0.9123080000    -1.9135010000 
 H        4.4506610000     0.7674860000    -1.4167040000 
 H        2.5329020000    -0.3250760000    -3.1198060000 
*
