! RI PBE def2-SVP def2-SVP/J NBO PAL2
% maxcore 2000
% output
    # printlevel mini
    print[ P_Basis ] 0
    print[ P_SCFInfo ] 1
    print[ P_SCFIterInfo ] 1
    print[ P_OrbEn ] 0
    print[ P_Cartesian ] 0
end
*xyz 0 1
 C        0.8625470000    -0.1285170000     0.0308420000 
 C        2.3376650000     0.0635640000    -0.1449480000 
 C        2.6881910000     0.8293680000    -1.3790120000 
 C        3.1724010000    -0.4439090000     0.7758050000 
 C        4.6429970000    -0.4407910000     0.9122450000 
 C        5.5617250000     0.2147760000    -0.0870500000 
 O        5.1204350000    -0.9973440000     1.8813450000 
 H        0.3527240000     0.8397310000     0.0770150000 
 H        0.6262420000    -0.6886130000     0.9350280000 
 H        0.4400050000    -0.6594930000    -0.8288580000 
 H        2.2873440000     0.3124870000    -2.2573910000 
 H        3.7504400000     0.9836450000    -1.5300350000 
 H        2.1984690000     1.8086190000    -1.3541190000 
 H        2.7243480000    -0.9746500000     1.6117050000 
 H        5.3571120000     1.2850290000    -0.1680750000 
 H        5.4431960000    -0.2253470000    -1.0800650000 
 H        6.5863710000     0.0693560000     0.2506980000 
*
