! RI PBE def2-SVP def2-SVP/J NBO PAL2
% maxcore 2000
% output
    # printlevel mini
    print[ P_Basis ] 0
    print[ P_SCFInfo ] 1
    print[ P_SCFIterInfo ] 1
    print[ P_OrbEn ] 0
    print[ P_Cartesian ] 0
end
*xyz 0 1
 C        1.0006590000     0.1534680000    -0.0973860000 
 C        2.5205860000     0.1008850000     0.0165040000 
 C        3.1376960000     1.4890920000    -0.0903690000 
 C        2.9880390000    -0.5795720000     1.2791230000 
 C        2.2408710000    -1.2565270000     2.1409790000 
 C        3.0276730000    -0.7934950000    -1.1099890000 
 O        3.8925780000    -0.5084360000    -1.8881640000 
 H        0.5742020000     0.6867870000     0.7550730000 
 H        0.5594430000    -0.8461340000    -0.1262100000 
 H        0.7058110000     0.6769240000    -1.0095330000 
 H        2.7843630000     2.1233030000     0.7254180000 
 H        2.8699170000     1.9570310000    -1.0396420000 
 H        4.2266140000     1.4381460000    -0.0464320000 
 H        4.0590740000    -0.5029930000     1.4578230000 
 H        1.1696010000    -1.3704470000     2.0196490000 
 H        2.6833830000    -1.7164050000     3.0169200000 
 H        2.5204990000    -1.7831060000    -1.1518530000 
*
