! RI PBE def2-SVP def2-SVP/J NBO PAL2
% maxcore 2000
% output
    # printlevel mini
    print[ P_Basis ] 0
    print[ P_SCFInfo ] 1
    print[ P_SCFIterInfo ] 1
    print[ P_OrbEn ] 0
    print[ P_Cartesian ] 0
end
*xyz 0 1
 C        0.8826690000     0.2393480000    -0.1315420000 
 C        2.3794000000     0.0768930000     0.0751240000 
 C        3.0740460000     1.4389320000     0.1446170000 
 C        2.7327870000    -0.7473870000     1.2811970000 
 C        1.9267570000    -1.0305090000     2.3055040000 
 C        4.0966390000    -1.3147650000     1.3489660000 
 O        4.9300040000    -1.2088030000     0.4858710000 
 H        0.6889280000     0.7749010000    -1.0635020000 
 H        0.4268090000     0.8201910000     0.6757390000 
 H        0.3733520000    -0.7258340000    -0.1851540000 
 H        2.8002240000    -0.4540740000    -0.7869470000 
 H        2.6986310000     2.0175580000     0.9933950000 
 H        2.8783040000     2.0091340000    -0.7666030000 
 H        4.1539340000     1.3291890000     0.2487750000 
 H        0.8981430000    -0.6946490000     2.3543740000 
 H        2.2887030000    -1.6254470000     3.1385960000 
 H        4.3100620000    -1.8819800000     2.2808100000 
*
