! RI PBE def2-SVP def2-SVP/J NBO PAL2
% maxcore 2000
% output
    # printlevel mini
    print[ P_Basis ] 0
    print[ P_SCFInfo ] 1
    print[ P_SCFIterInfo ] 1
    print[ P_OrbEn ] 0
    print[ P_Cartesian ] 0
end
*xyz 0 1
 C        3.1308160000    -1.2832750000    -1.6506310000 
 C        2.7386430000    -0.4716600000    -0.4205970000 
 C        1.2400870000    -0.1979120000    -0.4196380000 
 C        3.2076760000    -1.0920320000     0.9074640000 
 C        2.6560100000    -2.4835240000     1.1840890000 
 C        4.7287820000    -1.0821720000     1.0162690000 
 O        5.2003940000    -1.4297950000     2.3023610000 
 H        2.8343700000    -0.7575370000    -2.5618320000 
 H        2.6339720000    -2.2569050000    -1.6619130000 
 H        4.2078820000    -1.4551640000    -1.7081480000 
 H        3.2442040000     0.5007800000    -0.4967170000 
 H        0.6620890000    -1.1258610000    -0.4032520000 
 H        0.9461090000     0.3517310000    -1.3175580000 
 H        0.9427400000     0.3967940000     0.4485360000 
 H        2.8390950000    -0.4215820000     1.6998310000 
 H        2.9733380000    -3.1955600000     0.4175120000 
 H        1.5648860000    -2.4904250000     1.2207080000 
 H        3.0280590000    -2.8502440000     2.1421030000 
 H        5.1133170000    -0.0965510000     0.7147800000 
 H        5.1658040000    -1.8221790000     0.3405790000 
 H        4.8623070000    -0.7843250000     2.9286640000 
*
