! RI PBE def2-SVP def2-SVP/J NBO PAL2
% maxcore 2000
% output
    # printlevel mini
    print[ P_Basis ] 0
    print[ P_SCFInfo ] 1
    print[ P_SCFIterInfo ] 1
    print[ P_OrbEn ] 0
    print[ P_Cartesian ] 0
end
*xyz 0 1
 C        3.9224770000    -0.9381620000    -0.8028200000 
 C        2.8812900000    -0.0351500000    -0.1549520000 
 C        3.2989820000     0.3183690000     1.2671210000 
 C        2.5317540000     1.2082420000    -0.9961540000 
 C        2.0577560000     0.8144720000    -2.3904520000 
 C        3.6793490000     2.2059870000    -1.0951650000 
 O        1.4408940000     1.8110910000    -0.2971730000 
 H        4.1054500000    -1.8080130000    -0.1673490000 
 H        4.8799110000    -0.4236300000    -0.9260930000 
 H        3.6078170000    -1.3080890000    -1.7801700000 
 H        1.9393570000    -0.5943110000    -0.0925260000 
 H        4.2947270000     0.7702410000     1.2916490000 
 H        3.3404760000    -0.5849090000     1.8810090000 
 H        2.5939270000     1.0113090000     1.7265110000 
 H        1.6627000000     1.6926220000    -2.9107830000 
 H        1.2604410000     0.0703530000    -2.3274050000 
 H        2.8670130000     0.4115530000    -3.0020540000 
 H        3.3760380000     3.0655690000    -1.7012660000 
 H        3.9616850000     2.5727120000    -0.1076850000 
 H        4.5591960000     1.7675880000    -1.5712130000 
 H        1.1773610000     2.5984860000    -0.7811290000 
*
