! RI PBE def2-SVP def2-SVP/J NBO PAL2
% maxcore 2000
% output
    # printlevel mini
    print[ P_Basis ] 0
    print[ P_SCFInfo ] 1
    print[ P_SCFIterInfo ] 1
    print[ P_OrbEn ] 0
    print[ P_Cartesian ] 0
end
*xyz 0 1
 C        0.8933840000     0.2352650000    -0.3084680000 
 C        2.3390150000     0.1149680000     0.1572850000 
 C        2.9139820000     1.4771520000     0.5187480000 
 C        2.5061890000    -0.9026690000     1.3052830000 
 C        1.6935590000    -0.6270840000     2.5561910000 
 C        2.2672670000    -2.2910900000     0.7738890000 
 O        1.5440930000    -3.1134950000     1.2646920000 
 H        0.8289750000     0.8739090000    -1.1925880000 
 H        0.2624080000     0.6814020000     0.4642340000 
 H        0.4639470000    -0.7363520000    -0.5674410000 
 H        2.9277990000    -0.2747520000    -0.6844430000 
 H        2.3540860000     1.9442950000     1.3330700000 
 H        2.8667350000     2.1537510000    -0.3381260000 
 H        3.9594230000     1.4017620000     0.8292760000 
 H        3.5783670000    -0.8953030000     1.5607560000 
 H        0.6230510000    -0.6915270000     2.3555650000 
 H        1.9129830000     0.3624220000     2.9603570000 
 H        1.9171990000    -1.3673050000     3.3254250000 
 H        2.8368470000    -2.5272590000    -0.1549050000 
*
