! RI PBE def2-SVP def2-SVP/J NBO PAL2
% maxcore 2000
% output
    # printlevel mini
    print[ P_Basis ] 0
    print[ P_SCFInfo ] 1
    print[ P_SCFIterInfo ] 1
    print[ P_OrbEn ] 0
    print[ P_Cartesian ] 0
end
*xyz 0 1
 C        2.3610570000     1.0704500000    -0.7282030000 
 C        3.7301300000     0.5609780000    -0.2982980000 
 C        4.3114240000     1.4473470000     0.7945870000 
 C        3.6379490000    -0.9010310000     0.1325540000 
 C        4.9682300000    -1.5931350000     0.3969970000 
 C        4.7772310000    -3.0269600000     0.8555490000 
 O        5.8237320000    -1.5297690000    -0.7343950000 
 H        2.4145240000     2.1061010000    -1.0737790000 
 H        1.6520840000     1.0367970000     0.1057770000 
 H        1.9455680000     0.4674020000    -1.5402460000 
 H        4.4022640000     0.6057880000    -1.1628040000 
 H        3.6969880000     1.4028670000     1.7002700000 
 H        4.3455220000     2.4904260000     0.4700010000 
 H        5.3288640000     1.1555830000     1.0623550000 
 H        3.1089810000    -1.4718710000    -0.6441480000 
 H        3.0170990000    -0.9741730000     1.0349510000 
 H        5.5125810000    -1.0482310000     1.1742660000 
 H        4.2327430000    -3.6050080000     0.1007950000 
 H        4.2037610000    -3.0718430000     1.7847420000 
 H        5.7441310000    -3.5054230000     1.0211300000 
 H        5.4072280000    -2.0232150000    -1.4476830000 
*
