! RI PBE def2-SVP def2-SVP/J NBO PAL2
% maxcore 2000
% output
    # printlevel mini
    print[ P_Basis ] 0
    print[ P_SCFInfo ] 1
    print[ P_SCFIterInfo ] 1
    print[ P_OrbEn ] 0
    print[ P_Cartesian ] 0
end
*xyz 0 1
 C        0.7378900000    -0.0425430000    -0.2507120000 
 C        2.1712330000     0.2205160000     0.1939040000 
 C        3.1301910000    -0.6394330000    -0.4842580000 
 C        3.9020570000    -1.3520820000    -1.0656830000 
 C        2.5504380000     1.7074820000     0.0693510000 
 C        3.9921920000     2.0639930000     0.2867630000 
 O        1.7085040000     2.5331800000    -0.1646660000 
 H        0.4723940000    -1.0843000000    -0.0687790000 
 H        0.6248020000     0.1654150000    -1.3150630000 
 H        0.0528100000     0.6063350000     0.2939610000 
 H        2.2544630000     0.0119900000     1.2720880000 
 H        4.5854900000    -1.9867840000    -1.5785470000 
 H        4.5690050000     1.7654940000    -0.5927060000 
 H        4.4121990000     1.5188080000     1.1351010000 
 H        4.0854520000     3.1382190000     0.4348460000 
*
