! RI PBE def2-SVP def2-SVP/J NBO PAL2
% maxcore 2000
% output
    # printlevel mini
    print[ P_Basis ] 0
    print[ P_SCFInfo ] 1
    print[ P_SCFIterInfo ] 1
    print[ P_OrbEn ] 0
    print[ P_Cartesian ] 0
end
*xyz 0 1
 C        0.7473890000    -0.3259140000     0.0932650000 
 C        2.2640730000    -0.1635390000     0.1549460000 
 C        2.7091540000     1.2457610000     0.5349260000 
 C        2.4055780000     2.2534050000    -0.5224960000 
 C        1.6327670000     3.3195980000    -0.3687440000 
 C        2.8436800000    -1.2087100000     1.0715600000 
 O        3.6031890000    -0.9991630000     1.9762960000 
 H        0.3203770000     0.3649730000    -0.6347490000 
 H        0.2960620000    -0.1096490000     1.0653890000 
 H        0.4641390000    -1.3415970000    -0.1939190000 
 H        2.6648100000    -0.4136950000    -0.8407380000 
 H        3.7871500000     1.2228400000     0.7272930000 
 H        2.2358830000     1.5337050000     1.4785510000 
 H        2.8707170000     2.0792530000    -1.4926690000 
 H        1.1497460000     3.5362790000     0.5792790000 
 H        1.4615460000     4.0187320000    -1.1790960000 
 H        2.5055610000    -2.2466700000     0.8498860000 
*
