! RI PBE def2-SVP def2-SVP/J NBO PAL2
% maxcore 2000
% output
    # printlevel mini
    print[ P_Basis ] 0
    print[ P_SCFInfo ] 1
    print[ P_SCFIterInfo ] 1
    print[ P_OrbEn ] 0
    print[ P_Cartesian ] 0
end
*xyz 0 1
 C        0.9547270000    -0.0651110000     0.0833290000 
 C        2.4054580000    -0.0264400000     0.0558380000 
 C        3.6079330000     0.0006200000     0.0387830000 
 C        5.0634160000     0.0463660000     0.0092520000 
 C        5.6383750000     0.4978100000    -1.3352450000 
 C        5.3337280000    -0.4689540000    -2.4630900000 
 O        5.9009020000    -0.0677490000    -3.6932580000 
 H        0.5327160000     0.3364720000    -0.8414950000 
 H        0.5610090000     0.5260090000     0.9141070000 
 H        0.5909430000    -1.0892640000     0.1991120000 
 H        5.4604790000    -0.9444410000     0.2607290000 
 H        5.4142990000     0.7210340000     0.7968200000 
 H        6.7232370000     0.6051350000    -1.2451710000 
 H        5.2344620000     1.4861120000    -1.5827860000 
 H        4.2487960000    -0.6095250000    -2.5518080000 
 H        5.7693670000    -1.4475420000    -2.2415270000 
 H        5.4881530000     0.7577460000    -3.9591000000 
*
