! RI PBE def2-SVP def2-SVP/J NBO PAL2
% maxcore 2000
% output
    # printlevel mini
    print[ P_Basis ] 0
    print[ P_SCFInfo ] 1
    print[ P_SCFIterInfo ] 1
    print[ P_OrbEn ] 0
    print[ P_Cartesian ] 0
end
*xyz 0 1
 C        1.0281600000     0.0248240000     0.0790420000 
 C        2.4756240000    -0.0210720000     0.0420920000 
 C        3.6798770000    -0.0665410000     0.0020480000 
 C        5.0957700000    -0.0918840000    -0.0105410000 
 C        5.8420710000    -0.7847970000    -0.8759860000 
 C        7.3312590000    -0.7862460000    -0.8556120000 
 O        7.8645890000    -2.0903060000    -0.7145900000 
 H        0.6771670000     0.8195740000     0.7418610000 
 H        0.6159850000    -0.9210820000     0.4409350000 
 H        0.6163540000     0.2088310000    -0.9167190000 
 H        5.5952610000     0.5123630000     0.7458910000 
 H        5.3634440000    -1.4008990000    -1.6326320000 
 H        7.6960670000    -0.1151930000    -0.0657110000 
 H        7.7250930000    -0.4168260000    -1.8073970000 
 H        7.4756070000    -2.4818170000     0.0724980000 
*
