! RI PBE def2-SVP def2-SVP/J NBO PAL2
% maxcore 2000
% output
    # printlevel mini
    print[ P_Basis ] 0
    print[ P_SCFInfo ] 1
    print[ P_SCFIterInfo ] 1
    print[ P_OrbEn ] 0
    print[ P_Cartesian ] 0
end
*xyz 0 1
 C        1.0376940000    -0.0330970000     0.0589020000 
 C        2.4831050000     0.0240620000     0.0614120000 
 C        3.6880720000     0.0853760000     0.0665100000 
 C        5.0956940000     0.1168950000     0.0646330000 
 C        5.8506820000     1.2076640000     0.2715150000 
 C        7.3053800000     1.1024340000     0.2428370000 
 O        8.0618860000     2.0255590000     0.4171510000 
 H        0.6389310000     0.2474350000     1.0374380000 
 H        0.6823930000    -1.0383130000    -0.1787460000 
 H        0.6247550000     0.6592700000    -0.6794480000 
 H        5.6018360000    -0.8303430000    -0.1216280000 
 H        5.4166070000     2.1827780000     0.4627600000 
 H        7.6903550000     0.0778710000     0.0423640000 
*
