! RI PBE def2-SVP def2-SVP/J NBO PAL2
% maxcore 2000
% output
    # printlevel mini
    print[ P_Basis ] 0
    print[ P_SCFInfo ] 1
    print[ P_SCFIterInfo ] 1
    print[ P_OrbEn ] 0
    print[ P_Cartesian ] 0
end
*xyz 0 1
 C        0.9496680000    -0.1502120000    -0.0347290000 
 C        2.3965560000    -0.0757070000     0.0033260000 
 C        3.5984220000     0.0225360000     0.0415680000 
 C        5.0230820000     0.0401610000     0.0658110000 
 C        5.7276910000     1.1707010000     0.1340840000 
 C        5.6751800000    -1.3200780000     0.0182830000 
 O        5.2461240000    -2.0952150000    -1.0760890000 
 H        0.5797040000    -0.0554990000    -1.0591470000 
 H        0.5040350000     0.6525760000     0.5579580000 
 H        0.5931970000    -1.1024700000     0.3654520000 
 H        5.2446690000     2.1380080000     0.1939240000 
 H        6.8113530000     1.1460340000     0.1348760000 
 H        5.4752600000    -1.8404510000     0.9667960000 
 H        6.7555760000    -1.2037060000    -0.0808620000 
 H        4.2828720000    -2.0924690000    -1.0727400000 
*
