! RI PBE def2-SVP def2-SVP/J NBO PAL2
% maxcore 2000
% output
    # printlevel mini
    print[ P_Basis ] 0
    print[ P_SCFInfo ] 1
    print[ P_SCFIterInfo ] 1
    print[ P_OrbEn ] 0
    print[ P_Cartesian ] 0
end
*xyz 0 1
 C        1.0191280000     0.0116660000     0.0529970000 
 C        2.4653600000     0.0526460000     0.0938110000 
 C        3.6684220000     0.0852410000     0.1262190000 
 C        5.0866830000     0.0857800000     0.1216590000 
 C        5.8446200000     0.8212250000     0.9461340000 
 C        5.7947990000    -0.7825050000    -0.8577280000 
 O        5.2641590000    -1.4976040000    -1.6604910000 
 H        0.6042070000     1.0113040000    -0.0994910000 
 H        0.6138200000    -0.3806880000     0.9892900000 
 H        0.6730150000    -0.6286430000    -0.7616570000 
 H        5.4142800000     1.4802300000     1.6890050000 
 H        6.9261840000     0.7670290000     0.8811230000 
 H        6.9014140000    -0.7130000000    -0.7833610000 
*
