! RI PBE def2-SVP def2-SVP/J NBO PAL2
% maxcore 2000
% output
    # printlevel mini
    print[ P_Basis ] 0
    print[ P_SCFInfo ] 1
    print[ P_SCFIterInfo ] 1
    print[ P_OrbEn ] 0
    print[ P_Cartesian ] 0
end
*xyz 0 1
 C        0.9022020000    -0.0646360000     0.0661470000 
 C        2.3532680000    -0.0595910000     0.0409150000 
 C        3.5560200000    -0.0514220000     0.0107240000 
 C        5.0138080000    -0.0401920000     0.0100450000 
 C        5.5749660000     1.3798400000    -0.0015260000 
 C        5.5383670000    -0.8426880000     1.2078310000 
 O        6.9435290000    -0.9508380000     1.2200510000 
 H        0.4953490000    -0.5575940000    -0.8204630000 
 H        0.5066060000     0.9538210000     0.0944260000 
 H        0.5263230000    -0.5938920000     0.9453990000 
 H        5.3538790000    -0.5553790000    -0.9002240000 
 H        5.2188180000     1.9347210000     0.8695760000 
 H        5.2595860000     1.9163910000    -0.8975200000 
 H        6.6650820000     1.3506000000     0.0304090000 
 H        5.0594240000    -1.8292110000     1.2224890000 
 H        5.2631210000    -0.3282310000     2.1318150000 
 H        7.2111620000    -1.5261790000     0.4990040000 
*
