! RI PBE def2-SVP def2-SVP/J NBO PAL2
% maxcore 2000
% output
    # printlevel mini
    print[ P_Basis ] 0
    print[ P_SCFInfo ] 1
    print[ P_SCFIterInfo ] 1
    print[ P_OrbEn ] 0
    print[ P_Cartesian ] 0
end
*xyz 0 1
 C        1.0396720000     0.0886090000     0.0578340000 
 C        2.4899030000     0.0738520000     0.0363970000 
 C        3.6924090000     0.0457930000     0.0195110000 
 C        5.1480110000     0.0587930000     0.0134320000 
 C        5.7218850000     0.1154320000    -1.4084160000 
 C        5.6407130000     1.2738220000     0.7812160000 
 O        6.4753600000     1.2354650000     1.6382270000 
 H        0.6672530000     0.6408540000     0.9240840000 
 H        0.6411550000    -0.9275070000     0.1113780000 
 H        0.6377490000     0.5610050000    -0.8417490000 
 H        5.5364240000    -0.8231650000     0.5317400000 
 H        5.4066820000     1.0291250000    -1.9171310000 
 H        5.3627580000    -0.7344570000    -1.9896730000 
 H        6.8127020000     0.0871760000    -1.3781950000 
 H        5.1735220000     2.2323220000     0.4670470000 
*
