! RI PBE def2-SVP def2-SVP/J NBO PAL2
% maxcore 2000
% output
    # printlevel mini
    print[ P_Basis ] 0
    print[ P_SCFInfo ] 1
    print[ P_SCFIterInfo ] 1
    print[ P_OrbEn ] 0
    print[ P_Cartesian ] 0
end
*xyz 0 1
 C        1.0158140000    -0.0552050000     0.0795230000 
 C        2.4613050000    -0.0567500000     0.0775150000 
 C        3.6695090000    -0.0554850000     0.0773220000 
 C        5.0321200000    -0.0549660000     0.0759230000 
 C        6.2412980000    -0.0480600000     0.0822730000 
 C        7.6955900000    -0.0615910000     0.0463290000 
 O        8.2408770000     0.6107660000    -1.0688020000 
 H        0.6267270000     0.3287910000    -0.8672930000 
 H        0.6266440000     0.5745840000     0.8839000000 
 H        0.6234380000    -1.0658320000     0.2201560000 
 H        8.0421250000    -1.1041090000     0.0925040000 
 H        8.0912440000     0.4456200000     0.9306710000 
 H        7.8032990000     0.2809370000    -1.8585220000 
*
