! RI PBE def2-SVP def2-SVP/J NBO PAL2
% maxcore 2000
% output
    # printlevel mini
    print[ P_Basis ] 0
    print[ P_SCFInfo ] 1
    print[ P_SCFIterInfo ] 1
    print[ P_OrbEn ] 0
    print[ P_Cartesian ] 0
end
*xyz 0 1
 C        0.9505630000    -0.0607360000     0.1103820000 
 C        2.4008470000    -0.0182830000     0.1043090000 
 C        3.6025240000     0.0105110000     0.0917640000 
 C        5.0546270000     0.0490310000     0.0640260000 
 C        5.6582510000    -0.1749170000    -1.3270550000 
 C        7.1686470000    -0.0327880000    -1.2937000000 
 O        5.2683430000    -1.4156850000    -1.8754130000 
 H        0.5717810000    -0.5623280000    -0.7838040000 
 H        0.5256970000     0.9459910000     0.1355980000 
 H        0.5765550000    -0.6037320000     0.9821950000 
 H        5.4595450000    -0.7109180000     0.7464230000 
 H        5.4046020000     1.0143970000     0.4469850000 
 H        5.2363690000     0.5706630000    -2.0072710000 
 H        7.6108220000    -0.7583030000    -0.6023760000 
 H        7.4688790000     0.9661060000    -0.9673890000 
 H        7.5832510000    -0.2120810000    -2.2867350000 
 H        5.5724870000    -2.1156390000    -1.2897480000 
*
