! RI PBE def2-SVP def2-SVP/J NBO PAL2
% maxcore 2000
% output
    # printlevel mini
    print[ P_Basis ] 0
    print[ P_SCFInfo ] 1
    print[ P_SCFIterInfo ] 1
    print[ P_OrbEn ] 0
    print[ P_Cartesian ] 0
end
*xyz 0 1
 C        1.0635920000     0.1650710000     0.0953370000 
 C        2.5113280000     0.0763880000     0.0616900000 
 C        3.7109710000    -0.0011600000     0.0367340000 
 C        5.1579380000    -0.1046280000    -0.0054110000 
 C        5.8519970000     0.6103400000    -1.1661630000 
 C        5.2005620000     1.8451680000    -1.7121750000 
 O        6.9002010000     0.1884560000    -1.5804800000 
 H        0.6069410000    -0.8004360000    -0.1358990000 
 H        0.6978750000     0.8914670000    -0.6349080000 
 H        0.7117510000     0.4759950000     1.0821450000 
 H        5.4844540000    -1.1470890000    -0.0297190000 
 H        5.5873550000     0.3300510000     0.9077860000 
 H        4.9312870000     2.5280180000    -0.9019080000 
 H        4.2642370000     1.5716060000    -2.2060330000 
 H        5.8680220000     2.3326550000    -2.4198950000 
*
