! RI PBE def2-SVP def2-SVP/J NBO PAL2
% maxcore 2000
% output
    # printlevel mini
    print[ P_Basis ] 0
    print[ P_SCFInfo ] 1
    print[ P_SCFIterInfo ] 1
    print[ P_OrbEn ] 0
    print[ P_Cartesian ] 0
end
*xyz 0 1
 C        0.9143260000    -0.0280500000     0.0761820000 
 C        2.3657360000    -0.0277480000     0.0781670000 
 C        3.5682480000    -0.0289430000     0.0904600000 
 C        5.0223770000    -0.0279120000     0.0878030000 
 C        5.6023380000     0.1658530000    -1.3068480000 
 C        7.0992260000     0.1714450000    -1.3423430000 
 O        7.8078630000     0.0385210000    -0.3823470000 
 H        0.5222260000    -0.2518020000     1.0715330000 
 H        0.5214160000    -0.7786460000    -0.6142910000 
 H        0.5204760000     0.9452760000    -0.2271960000 
 H        5.3987010000    -0.9655450000     0.5080050000 
 H        5.3979280000     0.7602210000     0.7474560000 
 H        5.2553870000     1.1055030000    -1.7547470000 
 H        5.2561810000    -0.6166790000    -1.9936870000 
 H        7.5404810000     0.3118150000    -2.3536380000 
*
