! RI PBE def2-SVP def2-SVP/J NBO PAL2
% maxcore 2000
% output
    # printlevel mini
    print[ P_Basis ] 0
    print[ P_SCFInfo ] 1
    print[ P_SCFIterInfo ] 1
    print[ P_OrbEn ] 0
    print[ P_Cartesian ] 0
end
*xyz 0 1
 C        2.3601600000     0.6344770000    -1.3106650000 
 C        3.1533890000     0.4415440000    -0.0206360000 
 C        3.4399130000    -0.9920470000     0.2515760000 
 C        4.6243550000    -1.5871280000     0.4482940000 
 C        5.9692690000    -0.9432180000     0.4528450000 
 C        4.5889380000    -3.0381550000     0.6901960000 
 O        5.5621150000    -3.7230380000     0.8856580000 
 H        2.1215980000     1.6885470000    -1.4656190000 
 H        1.4195080000     0.0787800000    -1.2822330000 
 H        2.9275910000     0.2841330000    -2.1754990000 
 H        2.5657210000     0.8386180000     0.8169600000 
 H        4.0751250000     1.0251530000    -0.0552960000 
 H        2.5618700000    -1.6391150000     0.2845640000 
 H        5.9282280000     0.1153810000     0.2014820000 
 H        6.6305420000    -1.4504450000    -0.2536430000 
 H        6.4363100000    -1.0507500000     1.4354110000 
 H        3.5700490000    -3.4835570000     0.6809160000 
*
