! RI PBE def2-SVP def2-SVP/J NBO PAL2
% maxcore 2000
% output
    # printlevel mini
    print[ P_Basis ] 0
    print[ P_SCFInfo ] 1
    print[ P_SCFIterInfo ] 1
    print[ P_OrbEn ] 0
    print[ P_Cartesian ] 0
end
*xyz 0 1
 C        2.3696360000     0.1963970000     1.3810650000 
 C        3.1462220000    -0.2026740000     0.1308310000 
 C        3.2363410000     0.9027230000    -0.8689860000 
 C        4.3686120000     1.4262620000    -1.3250420000 
 C        4.5105570000     2.5490220000    -2.3086140000 
 C        3.2082950000     3.1531090000    -2.7946340000 
 O        5.3726660000     3.5485880000    -1.7728760000 
 H        2.2877980000    -0.6408230000     2.0778770000 
 H        1.3560700000     0.5200740000     1.1293190000 
 H        2.8619580000     1.0222830000     1.8999060000 
 H        2.6497600000    -1.0641280000    -0.3330250000 
 H        4.1532150000    -0.5330880000     0.4023660000 
 H        2.2854210000     1.2906300000    -1.2318120000 
 H        5.3182090000     1.0385780000    -0.9578050000 
 H        5.0620800000     2.1698520000    -3.1776280000 
 H        2.6216740000     3.5497520000    -1.9607000000 
 H        2.5975180000     2.4167960000    -3.3221130000 
 H        3.4257670000     3.9743500000    -3.4788460000 
 H        4.9998910000     3.8279960000    -0.9310830000 
*
