! RI PBE def2-SVP def2-SVP/J NBO PAL2
% maxcore 2000
% output
    # printlevel mini
    print[ P_Basis ] 0
    print[ P_SCFInfo ] 1
    print[ P_SCFIterInfo ] 1
    print[ P_OrbEn ] 0
    print[ P_Cartesian ] 0
end
*xyz 0 1
 C        1.7533700000     0.4603000000    -1.2446670000 
 C        2.6275760000     0.2088930000    -0.0202890000 
 C        2.9815080000    -1.2307350000     0.1470640000 
 C        4.2166670000    -1.7186050000     0.1747650000 
 C        4.5631750000    -3.1685530000     0.3147600000 
 C        5.1155350000    -3.7036940000    -0.9834380000 
 O        6.2251620000    -4.1333570000    -1.1308570000 
 H        1.4804570000     1.5150250000    -1.3216590000 
 H        0.8282270000    -0.1200690000    -1.1945810000 
 H        2.2741470000     0.1763620000    -2.1619670000 
 H        2.0911950000     0.5503510000     0.8735830000 
 H        3.5424870000     0.8055120000    -0.0822300000 
 H        2.1436640000    -1.9211650000     0.2520770000 
 H        5.0582390000    -1.0360820000     0.0680250000 
 H        3.6597040000    -3.7413820000     0.5533510000 
 H        5.3080520000    -3.3356230000     1.0966940000 
 H        4.4048340000    -3.6548750000    -1.8378500000 
*
