! RI PBE def2-SVP def2-SVP/J NBO PAL2
% maxcore 2000
% output
    # printlevel mini
    print[ P_Basis ] 0
    print[ P_SCFInfo ] 1
    print[ P_SCFIterInfo ] 1
    print[ P_OrbEn ] 0
    print[ P_Cartesian ] 0
end
*xyz 0 1
 C        3.1029240000     1.3969700000    -0.0334280000 
 C        2.6196160000    -0.0461500000     0.0740050000 
 C        2.9566510000    -0.6982930000     1.3849150000 
 C        1.9985740000    -1.1386190000     2.1983600000 
 C        4.4257970000    -0.8109570000     1.7023350000 
 C        4.7889670000    -1.8476300000     2.7479850000 
 O        4.4695630000    -3.1613620000     2.3486500000 
 H        2.8165440000     1.8282420000    -0.9950030000 
 H        4.1898870000     1.4667240000     0.0472130000 
 H        2.6674180000     2.0140650000     0.7563350000 
 H        3.0726700000    -0.6324400000    -0.7353920000 
 H        1.5376800000    -0.0834020000    -0.0780940000 
 H        0.9520300000    -1.0322510000     1.9346070000 
 H        2.2105720000    -1.5994650000     3.1572950000 
 H        4.7996380000     0.1681510000     2.0277360000 
 H        4.9658130000    -1.0450790000     0.7769450000 
 H        4.3176140000    -1.6006770000     3.7102500000 
 H        5.8688930000    -1.8350440000     2.9114860000 
 H        3.5449490000    -3.1627550000     2.0802900000 
*
