! RI PBE def2-SVP def2-SVP/J NBO PAL2
% maxcore 2000
% output
    # printlevel mini
    print[ P_Basis ] 0
    print[ P_SCFInfo ] 1
    print[ P_SCFIterInfo ] 1
    print[ P_OrbEn ] 0
    print[ P_Cartesian ] 0
end
*xyz 0 1
 C        0.8876390000     0.0090200000    -0.6035050000 
 C        2.3636390000     0.0093620000    -0.2522530000 
 C        2.7161390000    -0.4826200000     1.1243300000 
 C        1.8116740000    -0.7469170000     2.0607660000 
 C        4.1939060000    -0.6997230000     1.3753330000 
 C        5.0295920000     0.5420700000     1.0895680000 
 O        4.4755720000    -1.1941960000     2.6658620000 
 H        0.7409360000     0.3461150000    -1.6317550000 
 H        0.3198300000     0.6791830000     0.0460060000 
 H        0.4562400000    -0.9905300000    -0.5125310000 
 H        2.7617470000     1.0231740000    -0.3797850000 
 H        2.9120880000    -0.6020520000    -0.9813420000 
 H        0.7524490000    -0.6063060000     1.8858650000 
 H        2.1033070000    -1.1428590000     3.0253070000 
 H        4.5246200000    -1.4985620000     0.6987790000 
 H        4.9578760000     0.8556450000     0.0468620000 
 H        4.7000250000     1.3770940000     1.7165110000 
 H        6.0767680000     0.3315640000     1.3124390000 
 H        4.2555810000    -0.5048720000     3.3002630000 
*
