! RI PBE def2-SVP def2-SVP/J NBO PAL2
% maxcore 2000
% output
    # printlevel mini
    print[ P_Basis ] 0
    print[ P_SCFInfo ] 1
    print[ P_SCFIterInfo ] 1
    print[ P_OrbEn ] 0
    print[ P_Cartesian ] 0
end
*xyz 0 1
 C        2.5988420000     0.1008230000    -1.4704340000 
 C        2.4526890000     0.0736900000     0.0484510000 
 C        2.8660580000     1.3611710000     0.6966070000 
 C        1.9872930000     2.2380020000     1.1829070000 
 C        4.3357020000     1.6207500000     0.7825620000 
 C        4.8290620000     2.9348820000     1.3329300000 
 O        5.1206040000     0.7730850000     0.4178110000 
 H        2.2921280000    -0.8545010000    -1.9020830000 
 H        3.6355930000     0.2814210000    -1.7573200000 
 H        1.9772100000     0.8849160000    -1.9098580000 
 H        3.0710810000    -0.7338320000     0.4492920000 
 H        1.4147740000    -0.1393380000     0.3175590000 
 H        0.9207630000     2.0427430000     1.1429410000 
 H        2.2916030000     3.1723010000     1.6383600000 
 H        4.5153860000     3.0648090000     2.3715820000 
 H        4.4295530000     3.7757040000     0.7613120000 
 H        5.9160280000     2.9440850000     1.2832690000 
*
