! RI PBE def2-SVP def2-SVP/J NBO PAL2
% maxcore 2000
% output
    # printlevel mini
    print[ P_Basis ] 0
    print[ P_SCFInfo ] 1
    print[ P_SCFIterInfo ] 1
    print[ P_OrbEn ] 0
    print[ P_Cartesian ] 0
end
*xyz 0 1
 C        2.3061470000    -1.3431580000     0.4119580000 
 C        2.4152580000     0.1090080000    -0.0451690000 
 C        2.8509830000     0.2504530000    -1.4755680000 
 C        2.0246240000     0.6567120000    -2.4350930000 
 C        4.2997140000    -0.0489100000    -1.7677180000 
 C        5.1421540000     1.1291460000    -1.3440520000 
 O        5.9081670000     1.1264980000    -0.4214270000 
 H        1.9840490000    -1.3938000000     1.4542190000 
 H        3.2630440000    -1.8647030000     0.3406130000 
 H        1.5799720000    -1.8886290000    -0.1949690000 
 H        3.1268790000     0.6332110000     0.6036690000 
 H        1.4487250000     0.6037210000     0.0811740000 
 H        0.9930980000     0.9119930000    -2.2172220000 
 H        2.3448260000     0.7399470000    -3.4681180000 
 H        4.4388010000    -0.1957090000    -2.8430170000 
 H        4.6512970000    -0.9340330000    -1.2339020000 
 H        4.9797520000     2.0484600000    -1.9481790000 
*
