! RI PBE def2-SVP def2-SVP/J NBO PAL2
% maxcore 2000
% output
    # printlevel mini
    print[ P_Basis ] 0
    print[ P_SCFInfo ] 1
    print[ P_SCFIterInfo ] 1
    print[ P_OrbEn ] 0
    print[ P_Cartesian ] 0
end
*xyz 0 1
 C        1.9704270000    -1.4056440000     0.5633470000 
 C        2.4214460000    -0.0288510000     0.0847730000 
 C        2.9379020000     0.8373140000     1.1967580000 
 C        1.9305940000     1.4260980000     2.0922470000 
 O        0.7390470000     1.2845260000     1.9466230000 
 C        4.2486530000     1.0705120000     1.3674430000 
 C        4.9431760000     1.8754760000     2.4095220000 
 H        1.5920530000    -1.9992240000    -0.2720130000 
 H        1.1716850000    -1.3175950000     1.3012020000 
 H        2.7996020000    -1.9532740000     1.0184810000 
 H        1.5737160000     0.4770290000    -0.3862020000 
 H        3.2008230000    -0.1359550000    -0.6747750000 
 H        2.3113580000     2.0359240000     2.9329740000 
 H        4.9194440000     0.6107580000     0.6416030000 
 H        4.2807680000     2.3250410000     3.1457780000 
 H        5.5216250000     2.6765540000     1.9379460000 
 H        5.6669900000     1.2489000000     2.9405940000 
*
