! RI PBE def2-SVP def2-SVP/J NBO PAL2
% maxcore 2000
% output
    # printlevel mini
    print[ P_Basis ] 0
    print[ P_SCFInfo ] 1
    print[ P_SCFIterInfo ] 1
    print[ P_OrbEn ] 0
    print[ P_Cartesian ] 0
end
*xyz 0 1
 C        2.0931600000    -1.4498500000     0.7060650000 
 C        2.7934690000    -0.2811700000     0.0184790000 
 C        3.0166000000    -0.4865530000    -1.4545960000 
 C        1.7726300000    -0.6016840000    -2.2816660000 
 C        4.2588440000    -0.5680410000    -1.9392680000 
 C        4.6839980000    -0.7585160000    -3.3552450000 
 O        5.5632980000     0.2690140000    -3.7863730000 
 H        1.9799810000    -1.2566570000     1.7751600000 
 H        2.6686500000    -2.3714670000     0.5889850000 
 H        1.0952970000    -1.6233920000     0.2972600000 
 H        3.7556640000    -0.0974080000     0.5037810000 
 H        2.1899520000     0.6246320000     0.1611400000 
 H        1.0652930000     0.1903080000    -2.0152250000 
 H        1.2624720000    -1.5515310000    -2.0939470000 
 H        1.9650370000    -0.5410190000    -3.3519440000 
 H        5.0868350000    -0.4661640000    -1.2391630000 
 H        3.8239630000    -0.8438950000    -4.0293220000 
 H        5.2590850000    -1.6845180000    -3.4534510000 
 H        5.1418820000     1.1099110000    -3.5890620000 
*
