! RI PBE def2-SVP def2-SVP/J NBO PAL2
% maxcore 2000
% output
    # printlevel mini
    print[ P_Basis ] 0
    print[ P_SCFInfo ] 1
    print[ P_SCFIterInfo ] 1
    print[ P_OrbEn ] 0
    print[ P_Cartesian ] 0
end
*xyz 0 1
 C        2.9146850000    -0.2667830000    -1.2406330000 
 C        2.5127680000     0.0291130000     0.1967350000 
 C        3.0408610000    -0.9304330000     1.2752520000 
 C        2.5838170000    -0.4187760000     2.6384790000 
 C        2.5078230000    -2.3433150000     1.0560220000 
 C        4.5715760000    -0.9997700000     1.2516970000 
 O        5.2154090000     0.2437990000     1.4312400000 
 H        2.4748160000     0.4683050000    -1.9185070000 
 H        2.5752720000    -1.2521860000    -1.5671000000 
 H        3.9979040000    -0.2312550000    -1.3878470000 
 H        1.4193260000     0.0381050000     0.2669630000 
 H        2.8252270000     1.0471290000     0.4585110000 
 H        1.4950970000    -0.3200900000     2.6737090000 
 H        3.0245580000     0.5567790000     2.8538170000 
 H        2.8845510000    -1.1063800000     3.4341080000 
 H        1.4144630000    -2.3523170000     1.0760460000 
 H        2.8583060000    -3.0162290000     1.8439880000 
 H        2.8299230000    -2.7606460000     0.0988170000 
 H        4.9085210000    -1.4825180000     0.3240260000 
 H        4.9089480000    -1.6305400000     2.0792700000 
 H        5.0675620000     0.7783000000     0.6474270000 
*
