! RI PBE def2-SVP def2-SVP/J NBO PAL2
% maxcore 2000
% output
    # printlevel mini
    print[ P_Basis ] 0
    print[ P_SCFInfo ] 1
    print[ P_SCFIterInfo ] 1
    print[ P_OrbEn ] 0
    print[ P_Cartesian ] 0
end
*xyz 0 1
 C        2.9352990000    -0.1728820000    -1.4470080000 
 C        2.5934130000     0.0693200000     0.0142420000 
 C        3.0612730000     1.4188200000     0.5894350000 
 C        2.5340910000     2.6060360000    -0.1986800000 
 C        2.6206950000     1.5022400000     2.0544280000 
 C        4.5733950000     1.4052110000     0.5981850000 
 O        5.2906870000     2.2097100000     0.0721770000 
 H        2.6306890000    -1.1770910000    -1.7494240000 
 H        4.0091730000    -0.0842520000    -1.6332220000 
 H        2.4282320000     0.5352160000    -2.1049780000 
 H        3.0238060000    -0.7320510000     0.6271710000 
 H        1.5092120000     0.0059910000     0.1582900000 
 H        1.4416330000     2.5837380000    -0.2339910000 
 H        2.9161490000     2.6131540000    -1.2197640000 
 H        2.8435150000     3.5437800000     0.2663120000 
 H        1.5312110000     1.4434310000     2.1180350000 
 H        2.9368430000     2.4432680000     2.5109030000 
 H        3.0341500000     0.6795350000     2.6449210000 
 H        5.0082460000     0.5489450000     1.1663780000 
*
