! RI PBE def2-SVP def2-SVP/J NBO PAL2
% maxcore 2000
% output
    # printlevel mini
    print[ P_Basis ] 0
    print[ P_SCFInfo ] 1
    print[ P_SCFIterInfo ] 1
    print[ P_OrbEn ] 0
    print[ P_Cartesian ] 0
end
*xyz 0 1
 C        3.1384850000    -0.9411800000    -0.7713920000 
 C        2.6735100000    -0.3570480000     0.5529330000 
 C        3.1642950000     1.0611920000     0.8435230000 
 C        2.4489490000     1.6211650000     2.0673060000 
 C        4.6930660000     1.1222860000     0.9778780000 
 C        5.2395280000     2.5340490000     1.0902830000 
 O        5.1667610000     0.3081270000     2.0399770000 
 H        2.6714470000    -1.9120140000    -0.9524230000 
 H        4.2192770000    -1.0958240000    -0.7959460000 
 H        2.8750400000    -0.2877640000    -1.6088780000 
 H        2.9903490000    -1.0080930000     1.3743510000 
 H        1.5781990000    -0.3466210000     0.5721100000 
 H        2.9072450000     1.6910040000    -0.0196640000 
 H        2.6511360000     1.0142120000     2.9559120000 
 H        1.3670850000     1.6074290000     1.9167340000 
 H        2.7344300000     2.6523220000     2.2856000000 
 H        5.1244120000     0.6675730000     0.0814760000 
 H        4.9061640000     3.0230520000     2.0104660000 
 H        4.9148370000     3.1513200000     0.2486680000 
 H        6.3307180000     2.5111670000     1.1001340000 
 H        4.9256360000     0.7293180000     2.8697620000 
*
