! RI PBE def2-SVP def2-SVP/J NBO PAL2
% maxcore 2000
% output
    # printlevel mini
    print[ P_Basis ] 0
    print[ P_SCFInfo ] 1
    print[ P_SCFIterInfo ] 1
    print[ P_OrbEn ] 0
    print[ P_Cartesian ] 0
end
*xyz 0 1
 C        3.0414860000     1.0692070000     0.6376640000 
 C        2.5657490000     0.0451310000    -0.3796620000 
 C        3.0995030000    -1.3707900000    -0.1623800000 
 C        2.4771550000    -2.3448680000    -1.1558470000 
 C        4.6378680000    -1.4275740000    -0.1746390000 
 C        5.2499890000    -0.9041510000    -1.4385780000 
 O        6.0017000000     0.0324640000    -1.4931760000 
 H        2.5436210000     2.0289680000     0.4838640000 
 H        4.1166510000     1.2453440000     0.5641480000 
 H        2.8214740000     0.7429800000     1.6585760000 
 H        2.8351390000     0.3806500000    -1.3890960000 
 H        1.4713830000    -0.0021570000    -0.3641140000 
 H        2.7979320000    -1.6865980000     0.8444010000 
 H        2.6886390000    -2.0613580000    -2.1902020000 
 H        1.3905540000    -2.3648130000    -1.0425250000 
 H        2.8468800000    -3.3625670000    -1.0054210000 
 H        4.9470650000    -2.4754010000    -0.0691700000 
 H        5.0595620000    -0.8663480000     0.6608440000 
 H        4.9711700000    -1.4429170000    -2.3702670000 
*
