! RI PBE def2-SVP def2-SVP/J NBO PAL2
% maxcore 2000
% output
    # printlevel mini
    print[ P_Basis ] 0
    print[ P_SCFInfo ] 1
    print[ P_SCFIterInfo ] 1
    print[ P_OrbEn ] 0
    print[ P_Cartesian ] 0
end
*xyz 0 1
 C        2.8625900000    -1.2065070000    -0.8396170000 
 C        3.0813890000    -0.1148990000     0.1947940000 
 C        3.3771090000     1.2603870000    -0.4090650000 
 C        3.4360010000     2.3441000000     0.6705680000 
 C        3.5778610000     3.7534600000     0.1200510000 
 C        4.6966820000     1.2091690000    -1.1278720000 
 O        4.8735740000     1.4099630000    -2.2974820000 
 H        2.6409190000    -2.1620430000    -0.3596630000 
 H        3.7425070000    -1.3494690000    -1.4720330000 
 H        2.0257120000    -0.9610090000    -1.4984250000 
 H        3.9036480000    -0.3930020000     0.8657430000 
 H        2.1948230000    -0.0213980000     0.8302910000 
 H        2.6098380000     1.5141060000    -1.1485120000 
 H        4.2663590000     2.1221460000     1.3523790000 
 H        2.5252870000     2.2701360000     1.2736660000 
 H        4.4955060000     3.8721270000    -0.4617460000 
 H        3.6000230000     4.4887440000     0.9271510000 
 H        2.7417050000     4.0039760000    -0.5377830000 
 H        5.5581780000     0.9562920000    -0.4630530000 
*
