! RI PBE def2-SVP def2-SVP/J NBO PAL2
% maxcore 2000
% output
    # printlevel mini
    print[ P_Basis ] 0
    print[ P_SCFInfo ] 1
    print[ P_SCFIterInfo ] 1
    print[ P_OrbEn ] 0
    print[ P_Cartesian ] 0
end
*xyz 0 1
 C        1.0221580000    -0.0826470000    -0.0166720000 
 C        2.5458760000    -0.0437610000     0.0716070000 
 C        3.0342960000     0.0896380000     1.4360910000 
 C        3.4083490000     0.1944870000     2.5750270000 
 C        3.9069340000     0.3336920000     3.9330860000 
 C        5.3673220000     0.7827310000     3.9719090000 
 O        5.8636080000     0.8683850000     5.2873520000 
 H        0.7022380000    -0.1824760000    -1.0560750000 
 H        0.5861830000     0.8310670000     0.3908830000 
 H        0.6222430000    -0.9262500000     0.5484930000 
 H        2.9297090000     0.7886530000    -0.5280790000 
 H        2.9650750000    -0.9540000000    -0.3706130000 
 H        3.2910810000     1.0599370000     4.4781820000 
 H        3.8197460000    -0.6163130000     4.4702100000 
 H        5.4742950000     1.7340210000     3.4355260000 
 H        5.9881760000     0.0465500000     3.4582700000 
 H        5.4139100000     1.5869850000     5.7388010000 
*
