! RI PBE def2-SVP def2-SVP/J NBO PAL2
% maxcore 2000
% output
    # printlevel mini
    print[ P_Basis ] 0
    print[ P_SCFInfo ] 1
    print[ P_SCFIterInfo ] 1
    print[ P_OrbEn ] 0
    print[ P_Cartesian ] 0
end
*xyz 0 1
 C        3.0848240000    -3.2447720000    -2.4939740000 
 C        4.2955290000    -2.7426970000    -1.7239990000 
 C        4.4123150000    -1.2269370000    -1.7670120000 
 C        5.6820810000    -0.6380910000    -1.1549050000 
 C        5.6602340000     0.8790680000    -1.2934190000 
 C        5.8528840000    -1.0308400000     0.3074030000 
 O        6.7609840000    -1.1686330000    -1.9247420000 
 H        3.0063420000    -4.3335740000    -2.4501430000 
 H        3.1425360000    -2.9582600000    -3.5478110000 
 H        2.1563350000    -2.8292020000    -2.0910120000 
 H        5.2081930000    -3.1804440000    -2.1373330000 
 H        4.2274930000    -3.0848250000    -0.6862830000 
 H        3.5477200000    -0.7745470000    -1.2677690000 
 H        4.3754750000    -0.8978820000    -2.8118910000 
 H        4.8272540000     1.3170400000    -0.7377940000 
 H        5.5644010000     1.1611250000    -2.3439500000 
 H        6.5855400000     1.3157960000    -0.9043700000 
 H        4.9991530000    -0.7062440000     0.9077630000 
 H        6.7490910000    -0.5608610000     0.7248970000 
 H        5.9598140000    -2.1113900000     0.4094350000 
 H        7.5819900000    -0.8188300000    -1.5677900000 
*
