! RI PBE def2-SVP def2-SVP/J NBO PAL2
% maxcore 2000
% output
    # printlevel mini
    print[ P_Basis ] 0
    print[ P_SCFInfo ] 1
    print[ P_SCFIterInfo ] 1
    print[ P_OrbEn ] 0
    print[ P_Cartesian ] 0
end
*xyz 0 1
 C        0.9230360000    -0.1039270000     0.0446450000 
 C        2.4407030000    -0.0443880000     0.0723590000 
 C        2.9768100000     1.2147200000     0.7348100000 
 C        4.4951540000     1.2786140000     0.7648500000 
 C        5.0192130000     2.5365370000     1.4266600000 
 C        6.5120560000     2.6485840000     1.4822190000 
 O        7.2812410000     1.8338530000     1.0510520000 
 H        0.5662530000    -1.0175820000    -0.4361440000 
 H        0.5042900000     0.7445500000    -0.5040160000 
 H        0.5080680000    -0.0779970000     1.0562870000 
 H        2.8303770000    -0.1063140000    -0.9502710000 
 H        2.8341240000    -0.9223100000     0.5976440000 
 H        2.5866150000     1.2775240000     1.7589370000 
 H        2.5828950000     2.0943720000     0.2093820000 
 H        4.8922910000     1.2177200000    -0.2533880000 
 H        4.8959900000     0.4049450000     1.2885520000 
 H        4.6549940000     2.6323400000     2.4596880000 
 H        4.6513860000     3.4422040000     0.9232230000 
 H        6.8909150000     3.5749450000     1.9695980000 
*
