! RI PBE def2-SVP def2-SVP/J NBO PAL2
% maxcore 2000
% output
    # printlevel mini
    print[ P_Basis ] 0
    print[ P_SCFInfo ] 1
    print[ P_SCFIterInfo ] 1
    print[ P_OrbEn ] 0
    print[ P_Cartesian ] 0
end
*xyz 0 1
 C        1.5173370000     1.5856290000     0.9959410000 
 C        1.6059270000     0.4660040000     2.0204580000 
 C        2.0047790000    -0.8838310000     1.4311010000 
 C        3.4030140000    -0.9787220000     0.8266560000 
 C        4.5465850000    -0.8601750000     1.8242490000 
 O        4.7728930000     0.4445660000     2.3128030000 
 C        5.5213860000     1.2469190000     1.4435310000 
 H        1.1641060000     2.5120070000     1.4549470000 
 H        0.8239910000     1.3307240000     0.1883690000 
 H        2.4885680000     1.7996800000     0.5435790000 
 H        0.6297740000     0.3493510000     2.5037200000 
 H        2.3113800000     0.7473380000     2.8063880000 
 H        1.2751830000    -1.1569840000     0.6588950000 
 H        1.9169500000    -1.6502050000     2.2108690000 
 H        3.5321490000    -0.2409990000     0.0275450000 
 H        3.5018030000    -1.9561670000     0.3405750000 
 H        5.4740020000    -1.2457860000     1.3746210000 
 H        4.3300800000    -1.4755840000     2.7036730000 
 H        5.6608300000     2.2132300000     1.9294370000 
 H        5.0176910000     1.4119670000     0.4818730000 
 H        6.5081620000     0.8053490000     1.2428680000 
*
