! RI PBE def2-SVP def2-SVP/J NBO PAL2
% maxcore 2000
% output
    # printlevel mini
    print[ P_Basis ] 0
    print[ P_SCFInfo ] 1
    print[ P_SCFIterInfo ] 1
    print[ P_OrbEn ] 0
    print[ P_Cartesian ] 0
end
*xyz 0 1
 C        3.6876780000    -2.1450220000     0.2811280000 
 C        3.6299050000    -0.6680980000     0.6570980000 
 C        3.1745660000     0.1966780000    -0.4704570000 
 C        3.8798160000     1.1767840000    -1.0202290000 
 C        3.4188290000     1.9960000000    -2.1732400000 
 O        3.4796500000     3.3614990000    -1.8329940000 
 C        3.1391680000     4.1905060000    -2.9078230000 
 H        3.9899220000    -2.7566870000     1.1342560000 
 H        4.4016970000    -2.3143250000    -0.5282090000 
 H        2.7120790000    -2.5044800000    -0.0571920000 
 H        4.6111640000    -0.3299230000     1.0030470000 
 H        2.9405400000    -0.5443670000     1.5014090000 
 H        2.1831700000    -0.0198770000    -0.8704050000 
 H        4.8678570000     1.4183330000    -0.6326250000 
 H        2.3937630000     1.7134290000    -2.4585780000 
 H        4.0632900000     1.8116320000    -3.0501410000 
 H        3.2183130000     5.2229250000    -2.5662750000 
 H        2.1105350000     4.0083310000    -3.2508140000 
 H        3.8166480000     4.0449610000    -3.7617560000 
*
