! RI PBE def2-SVP def2-SVP/J NBO PAL2
% maxcore 2000
% output
    # printlevel mini
    print[ P_Basis ] 0
    print[ P_SCFInfo ] 1
    print[ P_SCFIterInfo ] 1
    print[ P_OrbEn ] 0
    print[ P_Cartesian ] 0
end
*xyz 0 1
 C        1.6525150000     1.3796790000     1.2074950000 
 C        2.8480740000     0.5575460000     0.7529640000 
 C        2.9805250000     0.5129580000    -0.7389870000 
 C        3.9460130000    -0.1416760000    -1.3852990000 
 C        5.0104110000    -0.9095930000    -0.6604730000 
 O        3.9344200000    -0.0899520000    -2.7518490000 
 C        4.9189850000    -0.7527820000    -3.4987680000 
 H        1.5729190000     1.4003190000     2.2966080000 
 H        0.7208530000     0.9675440000     0.8107930000 
 H        1.7320230000     2.4122840000     0.8573110000 
 H        2.7596170000    -0.4588980000     1.1603450000 
 H        3.7597580000     0.9700390000     1.2064190000 
 H        2.2459910000     1.0459610000    -1.3356400000 
 H        5.5687100000    -0.2497830000     0.0096250000 
 H        5.7268800000    -1.3896140000    -1.3232180000 
 H        4.5624120000    -1.6880810000    -0.0365060000 
 H        4.6824440000    -0.5536230000    -4.5437930000 
 H        4.9051690000    -1.8374470000    -3.3413420000 
 H        5.9267910000    -0.3737020000    -3.2935850000 
*
