! RI PBE def2-SVP def2-SVP/J NBO PAL2
% maxcore 2000
% output
    # printlevel mini
    print[ P_Basis ] 0
    print[ P_SCFInfo ] 1
    print[ P_SCFIterInfo ] 1
    print[ P_OrbEn ] 0
    print[ P_Cartesian ] 0
end
*xyz 0 1
 C        2.1984030000     1.2654930000     0.5098070000 
 C        2.2199650000    -0.0386420000    -0.2845100000 
 C        2.8831760000     0.0714420000    -1.6283640000 
 C        2.2072330000    -0.0062680000    -2.7680900000 
 C        4.3671670000     0.2684240000    -1.5970710000 
 O        4.9120590000     0.3438470000    -2.8817120000 
 C        6.2976160000     0.5391590000    -2.8615770000 
 H        1.6656350000     1.1322830000     1.4541950000 
 H        1.6951950000     2.0539700000    -0.0545360000 
 H        3.2045210000     1.6163130000     0.7495640000 
 H        1.1950030000    -0.3878380000    -0.4327200000 
 H        2.7278450000    -0.8093290000     0.3090810000 
 H        1.1338670000    -0.1626330000    -2.7665740000 
 H        2.7062920000     0.0817850000    -3.7243890000 
 H        4.8247150000    -0.5660790000    -1.0356340000 
 H        4.6076760000     1.1843210000    -1.0311940000 
 H        6.6382090000     0.5875850000    -3.8960560000 
 H        6.8156830000    -0.2877500000    -2.3553210000 
 H        6.5667310000     1.4766060000    -2.3544200000 
*
