! RI PBE def2-SVP def2-SVP/J NBO PAL2
% maxcore 2000
% output
    # printlevel mini
    print[ P_Basis ] 0
    print[ P_SCFInfo ] 1
    print[ P_SCFIterInfo ] 1
    print[ P_OrbEn ] 0
    print[ P_Cartesian ] 0
end
*xyz 0 1
 C        2.9589160000    -0.2252920000     1.3988300000 
 C        2.6001260000     0.0688240000    -0.0496890000 
 C        3.0692080000    -0.9737270000    -1.0639600000 
 C        2.4507090000    -0.7183090000    -2.4309180000 
 C        4.5831620000    -1.0118480000    -1.1580040000 
 O        4.9779330000    -2.0569300000    -2.0105390000 
 C        6.3671600000    -2.1417940000    -2.1463780000 
 H        2.5118280000     0.5131440000     2.0684280000 
 H        4.0370110000    -0.2069980000     1.5723880000 
 H        2.5922460000    -1.2103740000     1.7012960000 
 H        2.9949430000     1.0510900000    -0.3389390000 
 H        1.5114150000     0.1509840000    -0.1350270000 
 H        2.7452550000    -1.9630720000    -0.7149950000 
 H        2.7254410000     0.2762020000    -2.7983080000 
 H        1.3598860000    -0.7640570000    -2.3805870000 
 H        2.7923170000    -1.4529570000    -3.1608740000 
 H        5.0327980000    -1.1584560000    -0.1647680000 
 H        4.9546530000    -0.0469890000    -1.5455160000 
 H        6.5848190000    -2.9758320000    -2.8144250000 
 H        6.8583710000    -2.3241090000    -1.1795880000 
 H        6.7890020000    -1.2224700000    -2.5774150000 
*
