! RI PBE def2-SVP def2-SVP/J NBO PAL2
% maxcore 2000
% output
    # printlevel mini
    print[ P_Basis ] 0
    print[ P_SCFInfo ] 1
    print[ P_SCFIterInfo ] 1
    print[ P_OrbEn ] 0
    print[ P_Cartesian ] 0
end
*xyz 0 1
 C        1.6209650000     0.1927320000     1.1471870000 
 C        2.5783500000     0.1765770000    -0.0411150000 
 C        2.6075160000    -1.1268740000    -0.7824310000 
 C        1.3590770000    -1.5751530000    -1.4717700000 
 C        3.7255770000    -1.8497960000    -0.8022590000 
 O        3.8134760000    -3.0653130000    -1.4020760000 
 C        5.1269750000    -3.4897480000    -1.6739890000 
 H        1.6408580000     1.1621230000     1.6512490000 
 H        1.8931410000    -0.5746760000     1.8761630000 
 H        0.5907390000     0.0056700000     0.8356380000 
 H        3.5879860000     0.4199900000     0.3045420000 
 H        2.2890870000     0.9756130000    -0.7365890000 
 H        0.5822010000    -1.8595230000    -0.7543860000 
 H        1.5481380000    -2.4346790000    -2.1141700000 
 H        0.9444720000    -0.7658470000    -2.0824460000 
 H        4.6330450000    -1.5083500000    -0.3053170000 
 H        5.0605900000    -4.4998480000    -2.0765910000 
 H        5.7355720000    -3.5096470000    -0.7616380000 
 H        5.6135350000    -2.8408420000    -2.4114130000 
*
