! RI PBE def2-SVP def2-SVP/J NBO PAL2
% maxcore 2000
% output
    # printlevel mini
    print[ P_Basis ] 0
    print[ P_SCFInfo ] 1
    print[ P_SCFIterInfo ] 1
    print[ P_OrbEn ] 0
    print[ P_Cartesian ] 0
end
*xyz 0 1
 C        1.8463820000    -0.4531720000     0.4770640000 
 C        2.7399850000     0.2466910000    -0.5365430000 
 C        3.0958600000    -0.5547150000    -1.7968300000 
 C        2.0449740000    -0.5751250000    -2.8999730000 
 C        0.7263720000    -1.2653960000    -2.5869520000 
 O        3.4291010000    -1.8998340000    -1.5094210000 
 C        4.6422430000    -2.0558390000    -0.8295620000 
 H        1.7507610000     0.1549250000     1.3797750000 
 H        2.2635310000    -1.4196740000     0.7662980000 
 H        0.8427910000    -0.6370190000     0.0948720000 
 H        3.6729980000     0.5289160000    -0.0368800000 
 H        2.2867380000     1.1904850000    -0.8582710000 
 H        3.9854150000    -0.0700230000    -2.2342160000 
 H        1.8625510000     0.4603140000    -3.2069150000 
 H        2.5085310000    -1.0728180000    -3.7577140000 
 H        0.1180120000    -0.6941190000    -1.8839310000 
 H        0.8947000000    -2.2578720000    -2.1653860000 
 H        0.1378140000    -1.3841610000    -3.4997850000 
 H        4.6114560000    -1.6459190000     0.1884720000 
 H        5.4691270000    -1.5724310000    -1.3697290000 
 H        4.8442480000    -3.1258150000    -0.7646920000 
*
