! RI PBE def2-SVP def2-SVP/J NBO PAL2
% maxcore 2000
% output
    # printlevel mini
    print[ P_Basis ] 0
    print[ P_SCFInfo ] 1
    print[ P_SCFIterInfo ] 1
    print[ P_OrbEn ] 0
    print[ P_Cartesian ] 0
end
*xyz 0 1
 C        0.7018170000    -0.2252030000    -0.1544570000 
 C        2.2098950000    -0.1349990000     0.0033490000 
 C        2.8413660000     0.8993020000    -0.9251990000 
 C        4.3195420000     1.0316650000    -0.7504720000 
 C        5.1842990000     0.7699910000    -1.7282930000 
 O        6.5307130000     0.8412130000    -1.6968040000 
 C        7.1120310000     1.2372990000    -0.4796790000 
 H        0.2717090000    -0.9713870000     0.5175230000 
 H        0.4283000000    -0.5024820000    -1.1765470000 
 H        0.2236170000     0.7339100000     0.0644350000 
 H        2.6671650000    -1.1109900000    -0.1903740000 
 H        2.4586730000     0.1154180000     1.0410300000 
 H        2.3578350000     1.8687030000    -0.7442650000 
 H        2.6160160000     0.6381450000    -1.9655470000 
 H        4.6733270000     1.3433980000     0.2276170000 
 H        4.8488500000     0.4551080000    -2.7120000000 
 H        8.1897230000     1.2395990000    -0.6352290000 
 H        6.8602640000     0.5375650000     0.3254110000 
 H        6.7819380000     2.2420240000    -0.1919090000 
*
