! RI PBE def2-SVP def2-SVP/J NBO PAL2
% maxcore 2000
% output
    # printlevel mini
    print[ P_Basis ] 0
    print[ P_SCFInfo ] 1
    print[ P_SCFIterInfo ] 1
    print[ P_OrbEn ] 0
    print[ P_Cartesian ] 0
end
*xyz 0 1
 C        0.8079030000    -0.2353370000    -0.2016620000 
 C        2.1619370000     0.4524430000    -0.2114910000 
 C        3.1323520000    -0.1635620000     0.7935100000 
 C        4.4687410000     0.5052080000     0.8171740000 
 C        5.6074850000    -0.0804820000     0.4415980000 
 O        4.3563630000     1.7787490000     1.2607110000 
 C        5.5318210000     2.5476040000     1.3225530000 
 H        0.1272170000     0.2144020000    -0.9280390000 
 H        0.3363010000    -0.1652690000     0.7827180000 
 H        0.9002350000    -1.2973050000    -0.4471290000 
 H        2.0428400000     1.5158410000     0.0132670000 
 H        2.6035030000     0.3937920000    -1.2119320000 
 H        3.2763460000    -1.2236070000     0.5707620000 
 H        2.6951870000    -0.1011210000     1.7973620000 
 H        5.5841200000    -1.1073750000     0.1053700000 
 H        6.5661720000     0.4182640000     0.4553380000 
 H        5.2414140000     3.5286660000     1.6954390000 
 H        5.9883910000     2.6528720000     0.3324100000 
 H        6.2621410000     2.0989060000     2.0047310000 
*
