! RI PBE def2-SVP def2-SVP/J NBO PAL2
% maxcore 2000
% output
    # printlevel mini
    print[ P_Basis ] 0
    print[ P_SCFInfo ] 1
    print[ P_SCFIterInfo ] 1
    print[ P_OrbEn ] 0
    print[ P_Cartesian ] 0
end
*xyz 0 1
 C        1.4343160000     1.8040450000     1.2836420000 
 C        2.9175880000     1.8836080000     0.9648010000 
 C        3.3482270000     0.8718730000    -0.0843410000 
 C        4.8210440000     0.9410820000    -0.4437320000 
 C        5.2259110000    -0.1792180000    -1.3870290000 
 O        5.0513080000     2.2166910000    -1.0149160000 
 C        6.3943540000     2.6083620000    -1.0431840000 
 H        1.1470940000     2.5381020000     2.0401030000 
 H        1.1600280000     0.8144720000     1.6612300000 
 H        0.8295980000     1.9938700000     0.3922620000 
 H        3.4993720000     1.7218890000     1.8802650000 
 H        3.1707580000     2.8871960000     0.6129020000 
 H        2.7667870000     1.0190730000    -1.0026310000 
 H        3.1259770000    -0.1424260000     0.2663690000 
 H        5.4156960000     0.8626560000     0.4827550000 
 H        4.6421550000    -0.1233180000    -2.3093400000 
 H        5.0464950000    -1.1518080000    -0.9228000000 
 H        6.2849340000    -0.1291370000    -1.6476940000 
 H        6.4245820000     3.6364800000    -1.4062880000 
 H        7.0020810000     1.9879510000    -1.7143110000 
 H        6.8439850000     2.5754480000    -0.0404530000 
*
