! RI PBE def2-SVP def2-SVP/J NBO PAL2
% maxcore 2000
% output
    # printlevel mini
    print[ P_Basis ] 0
    print[ P_SCFInfo ] 1
    print[ P_SCFIterInfo ] 1
    print[ P_OrbEn ] 0
    print[ P_Cartesian ] 0
end
*xyz 0 1
 C        0.9846980000    -0.0930470000     0.0886080000 
 C        2.4602240000    -0.0343770000    -0.0698340000 
 C        3.1620750000     0.7311000000    -0.9131450000 
 C        2.6046240000     1.7095890000    -1.8951360000 
 C        4.6405480000     0.6462180000    -0.9223230000 
 O        5.1646300000    -0.2312940000    -0.0431930000 
 O        5.3433520000     1.3018230000    -1.6512500000 
 H        0.7064790000     0.1491310000     1.1195680000 
 H        0.6265160000    -1.1118720000    -0.0920680000 
 H        0.4472140000     0.5805130000    -0.5769300000 
 H        3.0253930000    -0.6948140000     0.5804970000 
 H        1.5174110000     1.7480990000    -1.8637380000 
 H        2.9157200000     1.4523970000    -2.9103710000 
 H        2.9952310000     2.7112960000    -1.7011160000 
 H        6.1220940000    -0.1773720000    -0.1624780000 
*
