! RI PBE def2-SVP def2-SVP/J NBO PAL2
% maxcore 2000
% output
    # printlevel mini
    print[ P_Basis ] 0
    print[ P_SCFInfo ] 1
    print[ P_SCFIterInfo ] 1
    print[ P_OrbEn ] 0
    print[ P_Cartesian ] 0
end
*xyz 0 1
 C        1.4969980000    -0.1148750000     0.3530210000 
 C        2.4098780000     0.3979550000    -0.7071230000 
 C        3.5755120000    -0.1054380000    -1.1020440000 
 C        4.2507600000    -1.3258810000    -0.5520050000 
 C        4.3376620000    -2.4321610000    -1.5714570000 
 O        5.0776080000    -2.0751830000    -2.6366600000 
 O        3.8218440000    -3.5111620000    -1.4758140000 
 H        1.3540420000     0.6372800000     1.1353700000 
 H        1.8553180000    -1.0298900000     0.8239540000 
 H        0.5067490000    -0.3214510000    -0.0644290000 
 H        2.0705500000     1.2987760000    -1.2140330000 
 H        4.1079360000     0.3949940000    -1.9051800000 
 H        5.2758130000    -1.0710570000    -0.2592260000 
 H        3.7368960000    -1.7299540000     0.3169190000 
 H        5.0683340000    -2.8284440000    -3.2436910000 
*
