! RI PBE def2-SVP def2-SVP/J NBO PAL2
% maxcore 2000
% output
    # printlevel mini
    print[ P_Basis ] 0
    print[ P_SCFInfo ] 1
    print[ P_SCFIterInfo ] 1
    print[ P_OrbEn ] 0
    print[ P_Cartesian ] 0
end
*xyz 0 1
 C        1.5966890000    -0.3789820000    -0.4902240000 
 C        2.5474960000     0.0571090000     0.5780080000 
 C        2.6075680000    -0.5295700000     1.7685950000 
 C        3.4532180000     1.2243330000     0.2587890000 
 C        4.6449810000     0.8151000000    -0.5693990000 
 O        4.3239820000     0.5947840000    -1.8584790000 
 O        5.7630780000     0.6856210000    -0.1550260000 
 H        2.1264800000    -0.6506480000    -1.4067570000 
 H        0.9147480000     0.4363990000    -0.7541730000 
 H        1.0015830000    -1.2323100000    -0.1635610000 
 H        1.9647480000    -1.3676600000     2.0141530000 
 H        3.2995140000    -0.1953560000     2.5333410000 
 H        3.8457380000     1.6600380000     1.1758430000 
 H        2.8954560000     1.9882860000    -0.2917530000 
 H        5.1396130000     0.3173560000    -2.2996570000 
*
