! RI PBE def2-SVP def2-SVP/J NBO PAL2
% maxcore 2000
% output
    # printlevel mini
    print[ P_Basis ] 0
    print[ P_SCFInfo ] 1
    print[ P_SCFIterInfo ] 1
    print[ P_OrbEn ] 0
    print[ P_Cartesian ] 0
end
*xyz 0 1
 C        1.1218320000    -0.0020690000    -0.0966360000 
 C        2.6093740000    -0.1547760000    -0.0376680000 
 C        3.0731800000    -1.5698450000     0.0595880000 
 C        3.3753170000     0.9456120000    -0.0753090000 
 C        4.8325540000     1.1073900000    -0.0354420000 
 O        5.5661440000    -0.0216150000     0.0535200000 
 O        5.3637450000     2.1903980000    -0.0790240000 
 H        0.7176150000    -0.5445150000    -0.9576000000 
 H        0.8154270000     1.0413020000    -0.1672660000 
 H        0.6586340000    -0.4434070000     0.7919370000 
 H        2.6346220000    -2.0356720000     0.9484660000 
 H        4.1516810000    -1.6709130000     0.1023540000 
 H        2.6945550000    -2.1360720000    -0.7980110000 
 H        2.8866070000     1.9109060000    -0.1473470000 
 H        6.4871130000     0.2741650000     0.0678280000 
*
