! RI PBE def2-SVP def2-SVP/J NBO PAL2
% maxcore 2000
% output
    # printlevel mini
    print[ P_Basis ] 0
    print[ P_SCFInfo ] 1
    print[ P_SCFIterInfo ] 1
    print[ P_OrbEn ] 0
    print[ P_Cartesian ] 0
end
*xyz 0 1
 C        0.9710560000    -0.1845870000     0.0084370000 
 C        2.4975580000    -0.0628600000     0.0419580000 
 C        3.0841890000    -0.5329910000    -1.2925750000 
 C        2.9056060000     1.3775570000     0.3189910000 
 C        3.0344950000    -0.9503140000     1.1517900000 
 O        2.7115980000    -2.2462300000     0.9740680000 
 O        3.6774020000    -0.5842360000     2.0983320000 
 H        0.5731030000     0.4625650000    -0.7771180000 
 H        0.5282900000     0.1280340000     0.9574300000 
 H        0.6577470000    -1.2088640000    -0.1971580000 
 H        2.7161220000     0.1092520000    -2.0965150000 
 H        2.7962520000    -1.5614460000    -1.5138130000 
 H        4.1754170000    -0.4733100000    -1.2880300000 
 H        2.5240700000     2.0251420000    -0.4741240000 
 H        3.9910800000     1.4809730000     0.3586910000 
 H        2.5063030000     1.7257690000     1.2728400000 
 H        3.0933230000    -2.7253540000     1.7225160000 
*
