! RI PBE def2-SVP def2-SVP/J NBO PAL2
% maxcore 2000
% output
    # printlevel mini
    print[ P_Basis ] 0
    print[ P_SCFInfo ] 1
    print[ P_SCFIterInfo ] 1
    print[ P_OrbEn ] 0
    print[ P_Cartesian ] 0
end
*xyz 0 1
 C        0.9068510000    -0.0763210000    -0.0909180000 
 C        2.4426360000    -0.0760490000    -0.0124660000 
 C        2.9613730000     1.2196330000     0.3919510000 
 C        3.3669640000     2.3050550000     0.6995360000 
 C        2.8847950000    -1.1813910000     0.9319360000 
 O        2.8714100000    -2.3688410000     0.2995750000 
 O        3.1690490000    -1.0592030000     2.0870710000 
 H        0.5755500000     0.6895650000    -0.7920930000 
 H        0.4786980000     0.1433950000     0.8878690000 
 H        0.5455630000    -1.0476110000    -0.4311180000 
 H        2.8372630000    -0.3239860000    -1.0031170000 
 H        3.7339110000     3.2627520000     0.9839070000 
 H        3.1108380000    -3.0358870000     0.9583660000 
*
