! RI PBE def2-SVP def2-SVP/J NBO PAL2
% maxcore 2000
% output
    # printlevel mini
    print[ P_Basis ] 0
    print[ P_SCFInfo ] 1
    print[ P_SCFIterInfo ] 1
    print[ P_OrbEn ] 0
    print[ P_Cartesian ] 0
end
*xyz 0 1
 C        2.1993670000    -0.4238300000     1.3323400000 
 C        3.0962150000     0.0759540000     0.2029400000 
 C        3.1367620000    -0.8680100000    -0.9443450000 
 C        4.2334530000    -1.4331270000    -1.4422400000 
 C        4.1480210000    -2.3597650000    -2.5819240000 
 O        5.3649760000    -2.8217040000    -2.9323760000 
 O        3.1442530000    -2.6923650000    -3.1588470000 
 H        2.1553670000     0.3058360000     2.1432450000 
 H        2.5729480000    -1.3647740000     1.7416950000 
 H        1.1796030000    -0.5952750000     0.9792410000 
 H        4.1085740000     0.2607500000     0.5725930000 
 H        2.7087270000     1.0377960000    -0.1556760000 
 H        2.1871220000    -1.1263860000    -1.4111170000 
 H        5.2190810000    -1.2352240000    -1.0353370000 
 H        5.2227230000    -3.4177760000    -3.6805820000 
*
