! RI PBE def2-SVP def2-SVP/J NBO PAL2
% maxcore 2000
% output
    # printlevel mini
    print[ P_Basis ] 0
    print[ P_SCFInfo ] 1
    print[ P_SCFIterInfo ] 1
    print[ P_OrbEn ] 0
    print[ P_Cartesian ] 0
end
*xyz 0 1
 C        3.0706660000     0.9417670000     1.0627380000 
 C        3.0226570000     0.0120740000    -0.1462790000 
 C        3.4315650000     0.6866960000    -1.4205260000 
 C        2.5800080000     1.0235830000    -2.3867430000 
 C        4.8841310000     0.9634060000    -1.5672400000 
 O        5.2026880000     1.6692970000    -2.6670500000 
 O        5.7224180000     0.5905600000    -0.7858590000 
 H        2.7695290000     0.4092170000     1.9674840000 
 H        2.3966080000     1.7914170000     0.9297340000 
 H        4.0803270000     1.3244610000     1.2192410000 
 H        2.0114110000    -0.3830100000    -0.2720400000 
 H        3.6874630000    -0.8378840000     0.0312450000 
 H        1.5219110000     0.8036540000    -2.2939460000 
 H        2.9126920000     1.5194770000    -3.2891750000 
 H        6.1645240000     1.7649540000    -2.6516040000 
*
