! RI PBE def2-SVP def2-SVP/J NBO PAL2
% maxcore 2000
% output
    # printlevel mini
    print[ P_Basis ] 0
    print[ P_SCFInfo ] 1
    print[ P_SCFIterInfo ] 1
    print[ P_OrbEn ] 0
    print[ P_Cartesian ] 0
end
*xyz 0 1
 C        0.9092310000    -0.2252900000    -0.1545750000 
 C        2.4209130000    -0.3446410000    -0.0645720000 
 C        3.1210340000     1.0042580000    -0.1079330000 
 C        4.6289570000     0.8802000000    -0.0178480000 
 C        5.3441360000     2.1989590000    -0.0585580000 
 O        6.6791030000     2.0411800000     0.0240920000 
 O        4.8306930000     3.2803270000    -0.1521450000 
 H        0.4269310000    -1.2047370000    -0.1216690000 
 H        0.6077740000     0.2633010000    -1.0852000000 
 H        0.5115470000     0.3697270000     0.6721420000 
 H        2.7895450000    -0.9722920000    -0.8845920000 
 H        2.6940050000    -0.8666160000     0.8602140000 
 H        2.7610100000     1.6373980000     0.7089870000 
 H        2.8562000000     1.5321100000    -1.0293870000 
 H        5.0286820000     0.2652280000    -0.8319690000 
 H        4.9336790000     0.3703080000     0.9029770000 
 H        7.0624630000     2.9287920000    -0.0086650000 
*
