! RI PBE def2-SVP def2-SVP/J NBO PAL2
% maxcore 2000
% output
    # printlevel mini
    print[ P_Basis ] 0
    print[ P_SCFInfo ] 1
    print[ P_SCFIterInfo ] 1
    print[ P_OrbEn ] 0
    print[ P_Cartesian ] 0
end
*xyz 0 1
 C        0.7937030000    -0.0874400000     0.1783720000 
 C        2.1223180000    -0.0730220000     0.0508530000 
 C        2.8692170000    -1.1522690000    -0.6885550000 
 C        3.5024340000    -0.6510210000    -1.9643740000 
 O        3.4852200000    -1.2589890000    -2.9973310000 
 C        2.9093040000     0.9804550000     0.6001640000 
 C        3.6158370000     1.8438850000     1.0504700000 
 H        0.2044180000    -0.8925950000    -0.2443170000 
 H        0.2719750000     0.6984850000     0.7093050000 
 H        2.2190320000    -1.9939890000    -0.9286060000 
 H        3.6893060000    -1.5186490000    -0.0567660000 
 H        4.0070210000     0.3345630000    -1.8870950000 
 H        4.2271040000     2.6161740000     1.4544910000 
*
