! RI PBE def2-SVP def2-SVP/J NBO PAL2
% maxcore 2000
% output
    # printlevel mini
    print[ P_Basis ] 0
    print[ P_SCFInfo ] 1
    print[ P_SCFIterInfo ] 1
    print[ P_OrbEn ] 0
    print[ P_Cartesian ] 0
end
*xyz 0 1
 C        1.6101500000     0.7238680000     1.1908320000 
 C        2.3462770000     0.2842510000     0.1797490000 
 C        3.0631010000    -1.0294220000     0.1472230000 
 C        4.5649960000    -0.8282460000     0.0323330000 
 O        5.1609600000    -1.0899150000    -0.9857430000 
 C        5.2449160000    -0.2809490000     1.2358360000 
 C        6.5611660000    -0.1096310000     1.2641780000 
 H        1.1161920000     1.6877250000     1.1530450000 
 H        1.4664380000     0.1310520000     2.0891630000 
 H        2.4634620000     0.9058500000    -0.7053270000 
 H        2.7522520000    -1.6179880000    -0.7190580000 
 H        2.8427590000    -1.5932850000     1.0595870000 
 H        4.6252780000    -0.0318700000     2.0913070000 
 H        7.1578700000    -0.3614540000     0.3935970000 
 H        7.0689940000     0.2785130000     2.1390670000 
*
