! RI PBE def2-SVP def2-SVP/J NBO PAL2
% maxcore 2000
% output
    # printlevel mini
    print[ P_Basis ] 0
    print[ P_SCFInfo ] 1
    print[ P_SCFIterInfo ] 1
    print[ P_OrbEn ] 0
    print[ P_Cartesian ] 0
end
*xyz 0 1
 C        1.6154310000    -0.7156450000     0.9646850000 
 C        2.4723520000     0.1327400000     0.4148640000 
 C        2.9028350000     0.1072120000    -1.0143310000 
 C        4.3943130000    -0.1255380000    -1.1480240000 
 O        4.7326880000    -0.0370620000    -2.5169850000 
 C        6.0245850000    -0.2259460000    -2.8375480000 
 C        7.0446780000    -0.4858770000    -2.0246920000 
 H        1.3393310000    -0.6460940000     2.0104020000 
 H        1.1532960000    -1.5085760000     0.3844840000 
 H        2.9112990000     0.9133380000     1.0347140000 
 H        2.6663020000     1.0646800000    -1.4926200000 
 H        2.3628850000    -0.6705270000    -1.5606550000 
 H        4.6685620000    -1.1143940000    -0.7600990000 
 H        4.9593680000     0.6254050000    -0.5797780000 
 H        6.1597340000    -0.1370330000    -3.9104770000 
 H        6.9473280000    -0.5817390000    -0.9521190000 
 H        8.0292220000    -0.6100340000    -2.4534100000 
*
