! RI PBE def2-SVP def2-SVP/J NBO PAL2
% maxcore 2000
% output
    # printlevel mini
    print[ P_Basis ] 0
    print[ P_SCFInfo ] 1
    print[ P_SCFIterInfo ] 1
    print[ P_OrbEn ] 0
    print[ P_Cartesian ] 0
end
*xyz 0 1
 C        0.6319320000    -0.3840600000     0.2203170000 
 C        2.0513440000     0.0334320000    -0.0110100000 
 C        2.4827400000     0.7805300000    -1.0257100000 
 C        1.6191480000     1.3291350000    -2.1069410000 
 O        3.8307310000     1.0499170000    -1.0510980000 
 C        4.4032640000     1.7948100000    -2.0198890000 
 C        5.7066130000     2.0412010000    -2.0244550000 
 H        0.5585160000    -0.9907420000     1.1234200000 
 H        0.2323950000    -0.9867300000    -0.6014460000 
 H       -0.0401390000     0.4694110000     0.3546040000 
 H        2.8021840000    -0.2934720000     0.7008510000 
 H        0.5883860000     1.0242000000    -1.9372100000 
 H        1.9192900000     0.9639830000    -3.0940090000 
 H        1.6455210000     2.4228710000    -2.1352630000 
 H        3.7470210000     2.1803720000    -2.7913200000 
 H        6.3601610000     1.6550500000    -1.2528570000 
 H        6.1301250000     2.6418820000    -2.8163850000 
*
