! RI PBE def2-SVP def2-SVP/J NBO PAL2
% maxcore 2000
% output
    # printlevel mini
    print[ P_Basis ] 0
    print[ P_SCFInfo ] 1
    print[ P_SCFIterInfo ] 1
    print[ P_OrbEn ] 0
    print[ P_Cartesian ] 0
end
*xyz 0 1
 C        1.0239820000    -0.1339770000     0.2911760000 
 C        2.4930960000    -0.2102200000     0.0728720000 
 C        3.1494920000    -0.6325530000    -1.0193960000 
 C        2.4888660000    -1.1156330000    -2.2847210000 
 O        2.7484320000    -0.2748780000    -3.3893260000 
 C        4.5752180000    -0.6252820000    -1.0341970000 
 C        5.7774890000    -0.6416260000    -1.0767540000 
 H        0.7421060000     0.8746080000     0.6096800000 
 H        0.7245610000    -0.8055860000     1.1028930000 
 H        0.4362100000    -0.3893660000    -0.5893340000 
 H        3.1042380000     0.1134860000     0.9118190000 
 H        1.4124410000    -1.2398880000    -2.1269680000 
 H        2.8967330000    -2.0922440000    -2.5557100000 
 H        2.5339970000     0.6267020000    -3.1349140000 
 H        6.8409570000    -0.6512620000    -1.1116000000 
*
