! RI PBE def2-SVP def2-SVP/J NBO PAL2
% maxcore 2000
% output
    # printlevel mini
    print[ P_Basis ] 0
    print[ P_SCFInfo ] 1
    print[ P_SCFIterInfo ] 1
    print[ P_OrbEn ] 0
    print[ P_Cartesian ] 0
end
*xyz 0 1
 C        0.7039070000     0.1684020000     0.2888040000 
 C        2.1735020000    -0.0237660000     0.3173610000 
 C        3.0732970000     0.9104930000     0.6235000000 
 C        4.5224330000     0.6139930000     0.6223080000 
 O        4.9634980000    -0.4839610000     0.3455450000 
 C        5.4180220000     1.7464060000     0.9830480000 
 C        6.7372310000     1.6000520000     1.0163500000 
 H        0.3065500000    -0.0617990000    -0.7053180000 
 H        0.4158520000     1.1871790000     0.5523570000 
 H        0.2133180000    -0.5243030000     0.9806480000 
 H        2.5581510000    -1.0111100000     0.0677020000 
 H        2.7601210000     1.9183540000     0.8827520000 
 H        4.9553600000     2.7001020000     1.2190990000 
 H        7.1780710000     0.6380340000     0.7768150000 
 H        7.3977570000     2.4181360000     1.2777180000 
*
