! RI PBE def2-SVP def2-SVP/J NBO PAL2
% maxcore 2000
% output
    # printlevel mini
    print[ P_Basis ] 0
    print[ P_SCFInfo ] 1
    print[ P_SCFIterInfo ] 1
    print[ P_OrbEn ] 0
    print[ P_Cartesian ] 0
end
*xyz 0 1
 C        1.6897500000    -1.8575440000    -3.5614250000 
 C        2.9714300000    -1.1805050000    -3.2187980000 
 C        3.1929050000    -0.4938550000    -2.1034810000 
 C        4.4922070000     0.1522970000    -1.7090680000 
 O        5.0198380000    -0.4874000000    -0.5598500000 
 C        5.4804460000     0.2645270000    -2.8317590000 
 C        6.7232170000    -0.1909280000    -2.7969530000 
 H        1.2731360000    -1.4603290000    -4.4925370000 
 H        0.9453600000    -1.7325840000    -2.7729610000 
 H        1.8438420000    -2.9292400000    -3.7222990000 
 H        3.7744130000    -1.2662670000    -3.9487210000 
 H        2.4033480000    -0.4113770000    -1.3584330000 
 H        4.2686890000     1.1738750000    -1.3713360000 
 H        5.0354970000    -1.4319780000    -0.7433120000 
 H        5.1190860000     0.7873000000    -3.7143830000 
 H        7.1134300000    -0.6906380000    -1.9174170000 
 H        7.3941930000    -0.0595530000    -3.6375760000 
*
