! RI PBE def2-SVP def2-SVP/J NBO PAL2
% maxcore 2000
% output
    # printlevel mini
    print[ P_Basis ] 0
    print[ P_SCFInfo ] 1
    print[ P_SCFIterInfo ] 1
    print[ P_OrbEn ] 0
    print[ P_Cartesian ] 0
end
*xyz 0 1
 C        0.2675290000     0.4725330000    -0.0421960000 
 C        1.7313700000     0.6589710000    -0.2394590000 
 C        2.4840400000    -0.0365630000    -1.0819750000 
 C        3.9517550000     0.1475190000    -1.2256670000 
 O        4.2463910000     0.4236280000    -2.5864160000 
 C        5.5435570000     0.5722200000    -2.9027530000 
 C        6.6015970000     0.5105160000    -2.0983710000 
 H        0.0414990000     0.2014230000     0.9939650000 
 H       -0.1283110000    -0.3083880000    -0.6938500000 
 H       -0.2753430000     1.4003370000    -0.2479120000 
 H        2.2076900000     1.4300430000     0.3652290000 
 H        2.0342180000    -0.8054950000    -1.7068170000 
 H        4.4914190000    -0.7631930000    -0.9290780000 
 H        4.3068500000     0.9698440000    -0.5924740000 
 H        5.6486100000     0.7649940000    -3.9655080000 
 H        6.5373710000     0.3243060000    -1.0352930000 
 H        7.5845700000     0.6550240000    -2.5244230000 
*
