! RI PBE def2-SVP def2-SVP/J NBO PAL2
% maxcore 2000
% output
    # printlevel mini
    print[ P_Basis ] 0
    print[ P_SCFInfo ] 1
    print[ P_SCFIterInfo ] 1
    print[ P_OrbEn ] 0
    print[ P_Cartesian ] 0
end
*xyz 0 1
 C        0.8976700000    -0.0476790000    -0.0653790000 
 C        2.3726680000     0.1648930000    -0.0005540000 
 C        3.0410350000     1.0413590000    -0.7500940000 
 C        3.0963990000    -0.6819290000     0.9806510000 
 O        2.5185650000    -1.4881870000     1.6768200000 
 C        4.5384440000    -0.5240600000     1.0941150000 
 C        5.7290150000    -0.4320450000     1.2260580000 
 H        0.4413510000     0.6091530000    -0.8058580000 
 H        0.4390550000     0.1372920000     0.9088630000 
 H        0.6692650000    -1.0858090000    -0.3180170000 
 H        2.5310620000     1.6689260000    -1.4723880000 
 H        4.1151640000     1.1523170000    -0.6592010000 
 H        6.7843970000    -0.3591210000     1.3515850000 
*
