! RI PBE def2-SVP def2-SVP/J NBO PAL2
% maxcore 2000
% output
    # printlevel mini
    print[ P_Basis ] 0
    print[ P_SCFInfo ] 1
    print[ P_SCFIterInfo ] 1
    print[ P_OrbEn ] 0
    print[ P_Cartesian ] 0
end
*xyz 0 1
 C        1.8052920000    -0.8753010000     0.5609440000 
 C        3.0658860000    -0.0822670000     0.6943080000 
 C        3.7138770000     0.0567330000     1.8466050000 
 C        3.5204540000     0.6103890000    -0.5757900000 
 O        2.6243520000     1.6597780000    -0.8956910000 
 C        4.9555040000     1.0432250000    -0.5575120000 
 C        5.3821530000     2.2659790000    -0.8339910000 
 H        1.4581780000    -1.2461900000     1.5259830000 
 H        1.9593560000    -1.7335420000    -0.1019230000 
 H        1.0155980000    -0.2676520000     0.1109980000 
 H        3.3469520000    -0.4076260000     2.7557480000 
 H        4.6256980000     0.6383860000     1.9217610000 
 H        3.4055540000    -0.1059490000    -1.4014130000 
 H        2.6019270000     2.2526160000    -0.1372890000 
 H        5.6701410000     0.2602130000    -0.3159830000 
 H        4.6903950000     3.0561630000    -1.1033860000 
 H        6.4377920000     2.5096370000    -0.8199690000 
*
