! RI PBE def2-SVP def2-SVP/J NBO PAL2
% maxcore 2000
% output
    # printlevel mini
    print[ P_Basis ] 0
    print[ P_SCFInfo ] 1
    print[ P_SCFIterInfo ] 1
    print[ P_OrbEn ] 0
    print[ P_Cartesian ] 0
end
*xyz 0 1
 C        0.7349840000    -0.0897270000    -0.1670900000 
 C        2.2225560000    -0.1468020000    -0.0373250000 
 C        2.9182080000    -1.3141050000    -0.6566200000 
 C        2.8692040000     0.8178030000     0.6089110000 
 O        4.2261190000     0.8158720000     0.7571280000 
 C        4.7917820000     1.8421150000     1.4315790000 
 C        6.0990440000     1.9277290000     1.6261280000 
 H        0.2683010000    -0.9730160000     0.2825230000 
 H        0.4337720000    -0.0770650000    -1.2203020000 
 H        0.3154110000     0.7955890000     0.3145160000 
 H        2.5496060000    -2.2532020000    -0.2299170000 
 H        3.9965430000    -1.2702020000    -0.5116720000 
 H        2.7150720000    -1.3576250000    -1.7321150000 
 H        2.3550970000     1.6642240000     1.0568790000 
 H        4.0956120000     2.5913860000     1.8022950000 
 H        6.7798060000     1.1743890000     1.2512900000 
 H        6.4998950000     2.7692360000     2.1722820000 
*
