! RI PBE def2-SVP def2-SVP/J NBO PAL2
% maxcore 2000
% output
    # printlevel mini
    print[ P_Basis ] 0
    print[ P_SCFInfo ] 1
    print[ P_SCFIterInfo ] 1
    print[ P_OrbEn ] 0
    print[ P_Cartesian ] 0
end
*xyz 0 1
 C        1.0656930000    -0.0028140000    -0.0241470000 
 C        2.6016850000    -0.0512330000    -0.0221890000 
 C        3.1709240000     1.3711140000    -0.1417220000 
 C        3.0273700000    -0.5869100000     1.3420140000 
 O        3.6772950000    -1.5651000000     1.5551300000 
 C        3.0912310000    -0.8939710000    -1.1028730000 
 C        3.4858820000    -1.5762330000    -2.0070580000 
 H        0.7035160000     0.5926500000     0.8183200000 
 H        0.6419980000    -1.0056530000     0.0452390000 
 H        0.7124550000     0.4584170000    -0.9476060000 
 H        2.8380180000     1.9852640000     0.6994180000 
 H        2.8181680000     1.8332300000    -1.0649290000 
 H        4.2615950000     1.3566320000    -0.1574040000 
 H        2.6566310000     0.0527200000     2.1759840000 
 H        3.8418390000    -2.1896110000    -2.8006770000 
*
