! RI PBE def2-SVP def2-SVP/J NBO PAL2
% maxcore 2000
% output
    # printlevel mini
    print[ P_Basis ] 0
    print[ P_SCFInfo ] 1
    print[ P_SCFIterInfo ] 1
    print[ P_OrbEn ] 0
    print[ P_Cartesian ] 0
end
*xyz 0 1
 C        0.8949320000     0.0172140000    -0.0484840000 
 C        2.4232340000     0.0442380000    -0.0759940000 
 C        2.9126870000     1.2763310000    -0.8246910000 
 C        2.9236620000     0.0875880000     1.3803460000 
 O        4.3235230000     0.1143000000     1.4948500000 
 C        2.9261230000    -1.2427290000    -0.6709990000 
 C        3.8795910000    -1.3867190000    -1.5834090000 
 H        0.5032850000     0.9098960000     0.4469980000 
 H        0.5217730000    -0.8592410000     0.4888390000 
 H        0.4885980000    -0.0120250000    -1.0620570000 
 H        2.4763570000     2.1769040000    -0.3851430000 
 H        2.6211880000     1.2384670000    -1.8769550000 
 H        3.9976140000     1.3753600000    -0.7654410000 
 H        2.4975520000    -0.7663930000     1.9287770000 
 H        2.5574950000     1.0012160000     1.8575320000 
 H        4.6708660000    -0.6117730000     0.9641760000 
 H        2.4620900000    -2.1400240000    -0.2602710000 
 H        4.3780930000    -0.5365860000    -2.0357940000 
 H        4.1824360000    -2.3700240000    -1.9250900000 
*
