! RI PBE def2-SVP def2-SVP/J NBO PAL2
% maxcore 2000
% output
    # printlevel mini
    print[ P_Basis ] 0
    print[ P_SCFInfo ] 1
    print[ P_SCFIterInfo ] 1
    print[ P_OrbEn ] 0
    print[ P_Cartesian ] 0
end
*xyz 0 1
 C        0.9489290000     0.0375930000    -0.0857710000 
 C        2.4782130000     0.0551750000    -0.1235660000 
 C        2.9778580000     0.6807790000    -1.4285820000 
 C        2.9964240000     0.8639720000     1.0820800000 
 O        4.3947940000     0.8878420000     1.1832380000 
 C        2.9975420000    -1.3069940000     0.0026620000 
 C        3.4573490000    -2.4093520000     0.1391290000 
 H        0.5635830000     1.0593560000    -0.1400700000 
 H        0.5817360000    -0.4235720000     0.8331630000 
 H        0.5486840000    -0.5236610000    -0.9317080000 
 H        2.5559630000     1.6830530000    -1.5407900000 
 H        2.6753710000     0.0799770000    -2.2880280000 
 H        4.0649030000     0.7629460000    -1.4238320000 
 H        2.5357980000     0.4660430000     1.9968430000 
 H        2.6748250000     1.9027100000     0.9661110000 
 H        4.6952250000    -0.0253220000     1.2525400000 
 H        3.8476040000    -3.3942450000     0.2436820000 
*
