! RI PBE def2-SVP def2-SVP/J NBO PAL2
% maxcore 2000
% output
    # printlevel mini
    print[ P_Basis ] 0
    print[ P_SCFInfo ] 1
    print[ P_SCFIterInfo ] 1
    print[ P_OrbEn ] 0
    print[ P_Cartesian ] 0
end
*xyz 0 1
 C        0.8818540000    -0.3765000000    -0.6717180000 
 C        2.2529020000    -0.0941800000    -0.0646770000 
 C        2.8926560000     1.1404210000    -0.6927100000 
 C        2.1062640000     0.1208510000     1.4337770000 
 O        1.4284220000     1.0263190000     1.8648730000 
 C        2.8223040000    -0.8171980000     2.3414820000 
 C        2.7430500000    -0.6940940000     3.6614750000 
 H        0.9658900000    -0.5124690000    -1.7524030000 
 H        0.2092160000     0.4611910000    -0.4774180000 
 H        0.4306930000    -1.2784820000    -0.2509870000 
 H        2.9033400000    -0.9587490000    -0.2324880000 
 H        2.2744960000     2.0191990000    -0.4989430000 
 H        2.9859120000     1.0114450000    -1.7734980000 
 H        3.8893670000     1.3306540000    -0.2871130000 
 H        3.4128700000    -1.6071840000     1.8879820000 
 H        2.1468870000     0.1030340000     4.0935770000 
 H        3.2595760000    -1.3705560000     4.3320710000 
*
