! RI PBE def2-SVP def2-SVP/J NBO PAL2
% maxcore 2000
% output
    # printlevel mini
    print[ P_Basis ] 0
    print[ P_SCFInfo ] 1
    print[ P_SCFIterInfo ] 1
    print[ P_OrbEn ] 0
    print[ P_Cartesian ] 0
end
*xyz 0 1
 C        1.0406820000    -0.3057120000    -0.0110280000 
 C        2.5519920000    -0.0955270000    -0.0339950000 
 C        3.2195390000    -0.6904650000     1.2025830000 
 C        3.1520710000    -0.6769020000    -1.2954540000 
 O        3.7302030000    -0.0136170000    -2.1218920000 
 C        2.9999160000    -2.1146210000    -1.4793210000 
 C        2.8731020000    -3.3003980000    -1.6286680000 
 H        0.6157620000     0.1578710000     0.8821260000 
 H        0.7928540000    -1.3697360000     0.0108670000 
 H        0.5603050000     0.1394010000    -0.8849730000 
 H        2.7716180000     0.9742840000    -0.0891750000 
 H        3.0430960000    -1.7671060000     1.2639990000 
 H        2.8083350000    -0.2295750000     2.1035220000 
 H        4.2983150000    -0.5205110000     1.1972400000 
 H        2.7711290000    -4.3501760000    -1.7794200000 
*
