! RI PBE def2-SVP def2-SVP/J NBO PAL2
% maxcore 2000
% output
    # printlevel mini
    print[ P_Basis ] 0
    print[ P_SCFInfo ] 1
    print[ P_SCFIterInfo ] 1
    print[ P_OrbEn ] 0
    print[ P_Cartesian ] 0
end
*xyz 0 1
 C        0.9186490000     0.2133650000    -0.6708470000 
 C        2.3553670000     0.2055050000    -0.1656420000 
 C        2.8441870000     1.6159390000     0.1260350000 
 C        2.5282920000    -0.6965960000     1.0698150000 
 O        1.7559560000    -0.2604940000     2.1660380000 
 C        2.3078070000    -2.1429490000     0.7398770000 
 C        1.5783780000    -2.9908860000     1.4504450000 
 H        0.8392500000     0.7872040000    -1.5967980000 
 H        0.2496300000     0.6880540000     0.0540420000 
 H        0.5479800000    -0.7958370000    -0.8677300000 
 H        2.9908040000    -0.2267830000    -0.9494560000 
 H        2.2743470000     2.0563580000     0.9474460000 
 H        2.7308810000     2.2590220000    -0.7501870000 
 H        3.8992640000     1.6200120000     0.4122370000 
 H        3.5691060000    -0.5863480000     1.4027690000 
 H        0.8325610000    -0.4416100000     1.9646340000 
 H        2.8059770000    -2.4918550000    -0.1627820000 
 H        1.0898350000    -2.6863420000     2.3697840000 
 H        1.4641280000    -4.0249590000     1.1479300000 
*
