! RI PBE def2-SVP def2-SVP/J NBO PAL2
% maxcore 2000
% output
    # printlevel mini
    print[ P_Basis ] 0
    print[ P_SCFInfo ] 1
    print[ P_SCFIterInfo ] 1
    print[ P_OrbEn ] 0
    print[ P_Cartesian ] 0
end
*xyz 0 1
 C        0.9571760000     0.0915270000     0.0610770000 
 C        2.4714560000     0.0070850000     0.1684810000 
 C        2.9159020000    -0.3492010000     1.5776020000 
 C        3.0451230000    -0.9586560000    -0.8832140000 
 O        4.4580180000    -0.8956420000    -0.9511400000 
 C        2.5844110000    -2.3341490000    -0.6894990000 
 C        2.2300750000    -3.4672900000    -0.5085240000 
 H        0.5653690000     0.8476730000     0.7449920000 
 H        0.4925410000    -0.8647420000     0.3156580000 
 H        0.6403320000     0.3600180000    -0.9504520000 
 H        2.8994300000     0.9810310000    -0.0953300000 
 H        2.5380250000    -1.3329540000     1.8700510000 
 H        2.5359310000     0.3818280000     2.2949240000 
 H        4.0049710000    -0.3557480000     1.6690750000 
 H        2.6971460000    -0.6224320000    -1.8663940000 
 H        4.8161090000    -1.4570850000    -0.2581090000 
 H        1.9155630000    -4.4736640000    -0.3612070000 
*
