! RI PBE def2-SVP def2-SVP/J NBO PAL2
% maxcore 2000
% output
    # printlevel mini
    print[ P_Basis ] 0
    print[ P_SCFInfo ] 1
    print[ P_SCFIterInfo ] 1
    print[ P_OrbEn ] 0
    print[ P_Cartesian ] 0
end
*xyz 0 1
 C        1.1542000000     0.3576670000     0.0019540000 
 C        2.5306270000    -0.2229130000    -0.3162590000 
 C        2.5932150000    -1.6992660000     0.0831310000 
 C        3.9755920000    -2.3111750000    -0.0395910000 
 O        3.9998310000    -3.6822440000     0.2998600000 
 C        2.8476350000    -0.0378360000    -1.7682050000 
 C        3.8341390000     0.7018140000    -2.2544740000 
 H        0.9198960000     0.2460900000     1.0638730000 
 H        0.3748960000    -0.1577180000    -0.5673670000 
 H        1.1065840000     1.4188030000    -0.2504890000 
 H        3.2813450000     0.3260330000     0.2664840000 
 H        1.8939100000    -2.2784970000    -0.5309930000 
 H        2.2504430000    -1.7955450000     1.1217290000 
 H        4.6902090000    -1.7415700000     0.5733640000 
 H        4.3254610000    -2.2532150000    -1.0722800000 
 H        3.6964600000    -3.7737230000     1.2066440000 
 H        2.1853160000    -0.5588430000    -2.4605510000 
 H        4.5161610000     1.2365900000    -1.6000190000 
 H        3.9973680000     0.8022380000    -3.3213230000 
*
