! RI PBE def2-SVP def2-SVP/J NBO PAL2
% maxcore 2000
% output
    # printlevel mini
    print[ P_Basis ] 0
    print[ P_SCFInfo ] 1
    print[ P_SCFIterInfo ] 1
    print[ P_OrbEn ] 0
    print[ P_Cartesian ] 0
end
*xyz 0 1
 C        1.2112950000    -0.4721890000    -0.4781010000 
 C        2.5644760000    -0.0225820000     0.0782150000 
 C        2.5427890000     1.4161430000     0.6176680000 
 C        1.5930530000     1.6468050000     1.7790980000 
 O        1.6441470000     2.9777390000     2.2509550000 
 C        3.0600670000    -0.9631630000     1.0785170000 
 C        3.4645230000    -1.7392450000     1.9014040000 
 H        0.8533680000     0.2446120000    -1.2210480000 
 H        0.4626610000    -0.5542870000     0.3111510000 
 H        1.2981040000    -1.4492830000    -0.9553760000 
 H        3.2831090000    -0.0360470000    -0.7503290000 
 H        2.2752630000     2.0933230000    -0.1995720000 
 H        3.5578000000     1.6815030000     0.9344840000 
 H        1.8051230000     0.9309460000     2.5840920000 
 H        0.5585020000     1.4893920000     1.4674110000 
 H        2.5261260000     3.1408060000     2.5948110000 
 H        3.8238940000    -2.4297730000     2.6271200000 
*
