! RI PBE def2-SVP def2-SVP/J NBO PAL2
% maxcore 2000
% output
    # printlevel mini
    print[ P_Basis ] 0
    print[ P_SCFInfo ] 1
    print[ P_SCFIterInfo ] 1
    print[ P_OrbEn ] 0
    print[ P_Cartesian ] 0
end
*xyz 0 1
 C        1.0054050000     0.0391540000    -0.0286300000 
 C        2.4527730000     0.1181530000    -0.0118000000 
 C        3.6516560000     0.1897650000     0.0066630000 
 C        5.1006240000     0.2433720000     0.0063770000 
 O        5.5405180000     1.3571980000     0.7624960000 
 C        6.8731450000     1.5231890000     0.8426780000 
 C        7.8328070000     0.7764650000     0.3035350000 
 H        0.5700400000     0.9097080000    -0.5250430000 
 H        0.6038320000    -0.0092090000     0.9863940000 
 H        0.6733370000    -0.8539440000    -0.5637920000 
 H        5.4777770000     0.3254510000    -1.0219240000 
 H        5.5151850000    -0.6787350000     0.4356170000 
 H        7.1001200000     2.3993740000     1.4405830000 
 H        7.6478590000    -0.1029610000    -0.2976890000 
 H        8.8625220000     1.0592210000     0.4719440000 
*
