! RI PBE def2-SVP def2-SVP/J NBO PAL2
% maxcore 2000
% output
    # printlevel mini
    print[ P_Basis ] 0
    print[ P_SCFInfo ] 1
    print[ P_SCFIterInfo ] 1
    print[ P_OrbEn ] 0
    print[ P_Cartesian ] 0
end
*xyz 0 1
 C        1.5264850000     0.9570560000     0.3636700000 
 C        2.5892620000    -0.0048960000    -0.1565690000 
 C        3.0347750000    -0.9899490000     0.8720220000 
 C        4.2845900000    -1.0821830000     1.3013010000 
 O        4.6574330000    -1.9874110000     2.2466570000 
 C        5.9555420000    -2.0080390000     2.6297100000 
 C        6.4093640000    -2.8525770000     3.5426660000 
 H        1.1973470000     1.6423560000    -0.4211580000 
 H        1.9110460000     1.5504490000     1.1963330000 
 H        0.6479300000     0.4144450000     0.7225290000 
 H        3.4535580000     0.5593040000    -0.5219500000 
 H        2.1863780000    -0.5422240000    -1.0238440000 
 H        2.2902320000    -1.6572220000     1.2990000000 
 H        5.0835970000    -0.4463780000     0.9245890000 
 H        6.5957500000    -1.2820380000     2.1332630000 
 H        5.7580530000    -3.5686450000     4.0268280000 
 H        7.4549400000    -2.8294500000     3.8135420000 
*
