! RI PBE def2-SVP def2-SVP/J NBO PAL2
% maxcore 2000
% output
    # printlevel mini
    print[ P_Basis ] 0
    print[ P_SCFInfo ] 1
    print[ P_SCFIterInfo ] 1
    print[ P_OrbEn ] 0
    print[ P_Cartesian ] 0
end
*xyz 0 1
 C        2.8133930000    -1.2194150000    -0.6296550000 
 C        2.4250940000     0.1057760000    -0.0001000000 
 C        3.0044090000     0.3370830000     1.4052060000 
 C        2.5084230000     1.6744930000     1.9530800000 
 O        2.6143290000    -0.7119360000     2.2782610000 
 C        4.5045860000     0.3554940000     1.3522710000 
 C        5.3117790000    -0.4379220000     2.0383390000 
 H        2.3217840000    -1.3482070000    -1.5964900000 
 H        2.5267520000    -2.0534080000     0.0133180000 
 H        3.8920270000    -1.2832900000    -0.7874790000 
 H        1.3324840000     0.1770790000     0.0779420000 
 H        2.7353620000     0.9367310000    -0.6430690000 
 H        1.4136540000     1.6943830000     1.9744900000 
 H        2.8435490000     2.5074340000     1.3306780000 
 H        2.8828560000     1.8243280000     2.9668700000 
 H        1.6593530000    -0.6708440000     2.3764150000 
 H        4.9199290000     1.1081290000     0.6852320000 
 H        4.9172070000    -1.1933970000     2.7067820000 
 H        6.3884380000    -0.3506230000     1.9495070000 
*
