! RI PBE def2-SVP def2-SVP/J NBO PAL2
% maxcore 2000
% output
    # printlevel mini
    print[ P_Basis ] 0
    print[ P_SCFInfo ] 1
    print[ P_SCFIterInfo ] 1
    print[ P_OrbEn ] 0
    print[ P_Cartesian ] 0
end
*xyz 0 1
 C        2.8379210000    -0.4255230000    -1.4516640000 
 C        2.4242810000     0.0059640000    -0.0579650000 
 C        2.9441090000    -0.9039360000     1.0668800000 
 C        2.4672820000    -0.3937840000     2.4259920000 
 O        2.5037600000    -2.2439510000     0.8687600000 
 C        4.4094840000    -0.9403250000     1.0525680000 
 C        5.6089360000    -0.9240400000     1.0572320000 
 H        2.3943540000     0.2286520000    -2.2052130000 
 H        2.5178240000    -1.4487810000    -1.6549520000 
 H        3.9231500000    -0.3868320000    -1.5658890000 
 H        1.3301600000     0.0199970000     0.0255390000 
 H        2.7631730000     1.0268970000     0.1423930000 
 H        1.3733070000    -0.3620420000     2.4444240000 
 H        2.8415870000     0.6124200000     2.6209050000 
 H        2.8152950000    -1.0585860000     3.2169390000 
 H        1.5453930000    -2.2435520000     0.9557710000 
 H        6.6732840000    -0.9249190000     1.0600110000 
*
