! RI PBE def2-SVP def2-SVP/J NBO PAL2
% maxcore 2000
% output
    # printlevel mini
    print[ P_Basis ] 0
    print[ P_SCFInfo ] 1
    print[ P_SCFIterInfo ] 1
    print[ P_OrbEn ] 0
    print[ P_Cartesian ] 0
end
*xyz 0 1
 C        2.4983840000    -0.6197320000     1.0895410000 
 C        2.1504850000     0.6604690000     0.3513560000 
 C        2.6007340000     0.6708590000    -1.0973740000 
 C        2.1362480000     1.9082010000    -1.8399130000 
 O        4.0273670000     0.6061020000    -1.0839100000 
 C        4.6644000000     0.1292000000    -2.1656500000 
 C        4.1616170000    -0.3221860000    -3.3121640000 
 H        2.1628960000    -0.5781790000     2.1279580000 
 H        3.5765570000    -0.7882700000     1.0902590000 
 H        2.0241630000    -1.4870160000     0.6214080000 
 H        2.6014890000     1.5228410000     0.8541040000 
 H        1.0677730000     0.8221080000     0.3647220000 
 H        2.2220280000    -0.2328100000    -1.5930240000 
 H        2.4632640000     2.8074780000    -1.3123230000 
 H        1.0458960000     1.9247050000    -1.9048810000 
 H        2.5400610000     1.9390190000    -2.8525670000 
 H        5.7366180000     0.1424770000    -1.9954690000 
 H        3.1056850000    -0.3481050000    -3.5428110000 
 H        4.8471040000    -0.6869620000    -4.0642710000 
*
