! RI PBE def2-SVP def2-SVP/J NBO PAL2
% maxcore 2000
% output
    # printlevel mini
    print[ P_Basis ] 0
    print[ P_SCFInfo ] 1
    print[ P_SCFIterInfo ] 1
    print[ P_OrbEn ] 0
    print[ P_Cartesian ] 0
end
*xyz 0 1
 C        2.0929500000     1.4575420000     0.7541740000 
 C        2.5500870000     0.4052570000    -0.2522980000 
 C        3.1803350000     0.9935340000    -1.4854710000 
 C        2.2247100000     1.5949210000    -2.4748490000 
 O        1.3723020000     0.6165470000    -3.0530880000 
 C        4.5021780000     0.9472020000    -1.6706410000 
 C        5.3093370000     1.4789420000    -2.8072060000 
 H        1.6327910000     0.9859350000     1.6257630000 
 H        1.3534300000     2.1370130000     0.3237110000 
 H        2.9371880000     2.0587630000     1.1001970000 
 H        1.6895980000    -0.2023320000    -0.5515070000 
 H        3.2632310000    -0.2698080000     0.2293000000 
 H        2.7534170000     2.1558820000    -3.2517050000 
 H        1.5530080000     2.2979260000    -1.9747450000 
 H        1.9334410000    -0.0627890000    -3.4372620000 
 H        5.0878990000     0.4625450000    -0.8895510000 
 H        4.7046080000     1.8954050000    -3.6123530000 
 H        5.9386040000     0.6904880000    -3.2321150000 
 H        5.9906240000     2.2641180000    -2.4627530000 
*
