! RI PBE def2-SVP def2-SVP/J NBO PAL2
% maxcore 2000
% output
    # printlevel mini
    print[ P_Basis ] 0
    print[ P_SCFInfo ] 1
    print[ P_SCFIterInfo ] 1
    print[ P_OrbEn ] 0
    print[ P_Cartesian ] 0
end
*xyz 0 1
 C        0.3654520000     0.9032760000    -0.1861120000 
 C        1.6360320000     0.0912240000    -0.0037310000 
 C        2.8863220000     0.9147910000    -0.2459030000 
 C        4.1703070000     0.1366860000    -0.0726060000 
 O        4.1687570000    -1.0356320000     0.2322610000 
 C        5.4663270000     0.8273430000    -0.2814280000 
 C        5.6118510000     2.1045740000    -0.6168330000 
 H       -0.5229050000     0.2936130000    -0.0076970000 
 H        0.2910890000     1.3060570000    -1.2005700000 
 H        0.3295300000     1.7495490000     0.5062890000 
 H        1.6373210000    -0.7677450000    -0.6800470000 
 H        1.6752770000    -0.3300670000     1.0043380000 
 H        2.9159940000     1.7783220000     0.4303920000 
 H        2.8779650000     1.3397430000    -1.2574740000 
 H        6.3297280000     0.1852280000    -0.1339310000 
 H        4.7621210000     2.7610110000    -0.7683630000 
 H        6.5942120000     2.5422280000    -0.7527960000 
*
