! RI PBE def2-SVP def2-SVP/J NBO PAL2
% maxcore 2000
% output
    # printlevel mini
    print[ P_Basis ] 0
    print[ P_SCFInfo ] 1
    print[ P_SCFIterInfo ] 1
    print[ P_OrbEn ] 0
    print[ P_Cartesian ] 0
end
*xyz 0 1
 C        1.0151850000    -1.5532960000     0.1303510000 
 C        2.3160670000    -0.9399040000    -0.3586720000 
 C        3.2628190000    -1.9635100000    -0.9637380000 
 C        4.5994820000    -1.3845000000    -1.4040710000 
 O        5.2909800000    -0.7913310000    -0.3146050000 
 C        5.4658080000    -2.4138770000    -2.1165370000 
 C        6.7659730000    -1.8424560000    -2.6538170000 
 H        0.3512590000    -0.7973080000     0.5559580000 
 H        1.1989950000    -2.3047150000     0.9039260000 
 H        0.4763020000    -2.0469440000    -0.6837290000 
 H        2.8228610000    -0.4285070000     0.4646090000 
 H        2.1009300000    -0.1679390000    -1.1066970000 
 H        2.7847480000    -2.4447220000    -1.8254310000 
 H        3.4522750000    -2.7673220000    -0.2370960000 
 H        4.4132200000    -0.5480920000    -2.0893770000 
 H        5.4766620000    -1.4845180000     0.3267550000 
 H        4.8833860000    -2.8553440000    -2.9324820000 
 H        5.6754900000    -3.2341440000    -1.4163280000 
 H        6.5734400000    -1.0725520000    -3.4062620000 
 H        7.3777440000    -2.6176990000    -3.1204030000 
 H        7.3490750000    -1.3818210000    -1.8545430000 
*
