! RI PBE def2-SVP def2-SVP/J NBO PAL2
% maxcore 2000
% output
    # printlevel mini
    print[ P_Basis ] 0
    print[ P_SCFInfo ] 1
    print[ P_SCFIterInfo ] 1
    print[ P_OrbEn ] 0
    print[ P_Cartesian ] 0
end
*xyz 0 1
 C        1.0286510000     0.2960080000     0.4688190000 
 C        2.5438050000     0.2053840000     0.4075390000 
 C        3.0546700000    -0.1777390000    -0.9724940000 
 C        4.5668330000    -0.3133990000    -1.0323110000 
 O        5.0488680000    -1.2872940000    -0.1116950000 
 C        5.1296800000    -0.6032090000    -2.3929920000 
 C        4.4519910000    -0.7367310000    -3.5247650000 
 H        0.6853520000     0.5788390000     1.4665310000 
 H        0.5652710000    -0.6630030000     0.2195200000 
 H        0.6448640000     1.0387210000    -0.2367110000 
 H        2.9069550000    -0.5235140000     1.1369910000 
 H        2.9819570000     1.1678280000     0.6963770000 
 H        2.7362070000     0.5760910000    -1.7014560000 
 H        2.5973040000    -1.1252510000    -1.2865820000 
 H        5.0112750000     0.6255670000    -0.6774520000 
 H        4.7998790000    -2.1525540000    -0.4513160000 
 H        6.2096200000    -0.7371620000    -2.3981060000 
 H        3.3753910000    -0.6168770000    -3.5732510000 
 H        4.9579360000    -0.9668050000    -4.4554260000 
*
