! RI PBE def2-SVP def2-SVP/J NBO PAL2
% maxcore 2000
% output
    # printlevel mini
    print[ P_Basis ] 0
    print[ P_SCFInfo ] 1
    print[ P_SCFIterInfo ] 1
    print[ P_OrbEn ] 0
    print[ P_Cartesian ] 0
end
*xyz 0 1
 C        1.1141870000     0.0738560000    -0.1864900000 
 C        2.6308060000    -0.0027520000    -0.1307880000 
 C        3.1400590000    -0.4910750000     1.2151890000 
 C        4.6627500000    -0.5627380000     1.3165220000 
 O        5.0896450000    -0.8312390000     2.6396490000 
 C        5.2258910000    -1.5274930000     0.3707480000 
 C        5.6707280000    -2.3505030000    -0.3822000000 
 H        0.7692220000     0.4325170000    -1.1587400000 
 H        0.7228320000     0.7525700000     0.5763830000 
 H        0.6639520000    -0.9080140000    -0.0163080000 
 H        3.0561580000     0.9858380000    -0.3396580000 
 H        2.9972740000    -0.6664260000    -0.9201980000 
 H        2.7283840000    -1.4838060000     1.4332040000 
 H        2.8038110000     0.1778860000     2.0136600000 
 H        5.0746990000     0.4255880000     1.0834370000 
 H        4.9057300000    -1.7562910000     2.8284170000 
 H        6.0769830000    -3.0723170000    -1.0509270000 
*
