! RI PBE def2-SVP def2-SVP/J NBO PAL2
% maxcore 2000
% output
    # printlevel mini
    print[ P_Basis ] 0
    print[ P_SCFInfo ] 1
    print[ P_SCFIterInfo ] 1
    print[ P_OrbEn ] 0
    print[ P_Cartesian ] 0
end
*xyz 0 1
 C        0.9949840000    -0.2879390000     0.4167990000 
 C        2.4922350000    -0.0764510000     0.2702740000 
 C        2.9632100000    -0.1864530000    -1.1709360000 
 C        4.4513780000     0.0249080000    -1.3074860000 
 O        4.8000580000    -0.0943260000    -2.6727930000 
 C        6.0966590000     0.0651350000    -2.9873800000 
 C        7.1166260000     0.3248380000    -2.1738630000 
 H        0.6796000000    -0.2045140000     1.4591440000 
 H        0.6996740000    -1.2777650000     0.0581360000 
 H        0.4339430000     0.4518780000    -0.1607010000 
 H        3.0269840000    -0.8090930000     0.8858920000 
 H        2.7631410000     0.9082610000     0.6685940000 
 H        2.4425430000     0.5499780000    -1.7923190000 
 H        2.7070970000    -1.1719130000    -1.5744390000 
 H        5.0082520000    -0.7186960000    -0.7213460000 
 H        4.7412600000     1.0191400000    -0.9413060000 
 H        6.2376410000    -0.0486090000    -4.0574190000 
 H        7.0148720000     0.4445600000    -1.1042460000 
 H        8.1054550000     0.4229410000    -2.5995070000 
*
