! RI PBE def2-SVP def2-SVP/J NBO PAL2
% maxcore 2000
% output
    # printlevel mini
    print[ P_Basis ] 0
    print[ P_SCFInfo ] 1
    print[ P_SCFIterInfo ] 1
    print[ P_OrbEn ] 0
    print[ P_Cartesian ] 0
end
*xyz 0 1
 C        0.9398420000    -0.2003250000    -0.1090250000 
 C        2.1358430000     0.2236340000    -0.5183900000 
 C        3.3966670000     0.1043690000     0.2811700000 
 C        4.2556910000    -1.0455190000    -0.1940300000 
 O        4.6751620000    -1.9022860000     0.5316680000 
 C        2.2269740000     0.8405720000    -1.8554730000 
 O        3.2511620000     1.2536000000    -2.3369260000 
 H        0.7889490000    -0.6629670000     0.8595400000 
 H        0.0684520000    -0.0866800000    -0.7462690000 
 H        3.1919980000    -0.0320010000     1.3430270000 
 H        3.9883330000     1.0167110000     0.1371840000 
 H        4.4853710000    -1.0464330000    -1.2786320000 
 H        1.2648550000     0.9053340000    -2.4048540000 
*
