! RI PBE def2-SVP def2-SVP/J NBO PAL2
% maxcore 2000
% output
    # printlevel mini
    print[ P_Basis ] 0
    print[ P_SCFInfo ] 1
    print[ P_SCFIterInfo ] 1
    print[ P_OrbEn ] 0
    print[ P_Cartesian ] 0
end
*xyz 0 1
 C        1.3587450000     0.3786630000    -0.5562090000 
 C        2.1723220000    -0.4674980000     0.0571880000 
 C        2.8500800000    -0.1750040000     1.3522030000 
 C        2.8128450000    -1.3397740000     2.3343600000 
 O        2.3482760000    -2.4131890000     2.0848430000 
 C        4.3193480000     0.2016330000     1.1891850000 
 O        4.9460110000     0.7711510000     2.0357650000 
 H        0.8949370000     0.1284980000    -1.5028850000 
 H        1.1184210000     1.3492180000    -0.1328310000 
 H        2.3805190000    -1.4384470000    -0.3831560000 
 H        2.3908220000     0.6732050000     1.8743320000 
 H        3.2752100000    -1.1135860000     3.3156990000 
 H        4.7814660000    -0.1068790000     0.2293970000 
*
