! RI PBE def2-SVP def2-SVP/J NBO PAL2
% maxcore 2000
% output
    # printlevel mini
    print[ P_Basis ] 0
    print[ P_SCFInfo ] 1
    print[ P_SCFIterInfo ] 1
    print[ P_OrbEn ] 0
    print[ P_Cartesian ] 0
end
*xyz 0 1
 C        1.9401130000    -0.8776230000    -0.6107340000 
 C        2.9445590000    -0.0795740000    -0.2765810000 
 C        3.2988140000     0.3114840000     1.1279850000 
 C        4.6519830000    -0.2685330000     1.4730670000 
 O        5.6705260000     0.3623540000     1.4884110000 
 C        4.6683250000    -1.7822250000     1.7815380000 
 O        5.6755670000    -2.3699160000     2.0347400000 
 H        1.7401180000    -1.1276460000    -1.6458490000 
 H        1.2747640000    -1.3004690000     0.1357890000 
 H        3.5913010000     0.3250010000    -1.0514760000 
 H        2.5420970000    -0.0688710000     1.8214580000 
 H        3.3665270000     1.3967050000     1.2283810000 
 H        3.6796070000    -2.2870770000     1.7691810000 
*
