! RI PBE def2-SVP def2-SVP/J NBO PAL2
% maxcore 2000
% output
    # printlevel mini
    print[ P_Basis ] 0
    print[ P_SCFInfo ] 1
    print[ P_SCFIterInfo ] 1
    print[ P_OrbEn ] 0
    print[ P_Cartesian ] 0
end
*xyz 0 1
 C        0.5722830000    -1.0896940000    -0.3804220000 
 C        1.5012940000    -0.3697440000     0.2308460000 
 C        2.6603380000    -0.9347410000     0.9830240000 
 C        4.0063980000    -0.4333480000     0.4909310000 
 O        4.2378840000    -0.7648900000    -0.8852670000 
 C        4.7013010000    -1.9861280000    -1.1318980000 
 O        4.9504310000    -2.8275930000    -0.3177230000 
 H       -0.2524480000    -0.6229800000    -0.9062420000 
 H        0.6018390000    -2.1749950000    -0.3734100000 
 H        1.4358780000     0.7171200000     0.1961130000 
 H        2.6435210000    -2.0267750000     0.9533950000 
 H        2.5902760000    -0.6439300000     2.0392630000 
 H        4.8125810000    -0.8490270000     1.0975300000 
 H        4.0544250000     0.6562780000     0.5210240000 
 H        4.8302990000    -2.1094450000    -2.2171610000 
*
