! RI PBE def2-SVP def2-SVP/J NBO PAL2
% maxcore 2000
% output
    # printlevel mini
    print[ P_Basis ] 0
    print[ P_SCFInfo ] 1
    print[ P_SCFIterInfo ] 1
    print[ P_OrbEn ] 0
    print[ P_Cartesian ] 0
end
*xyz 0 1
 C        0.9856570000    -0.2067640000    -0.1409570000 
 C        2.4380700000     0.0968560000    -0.0078740000 
 C        2.9998340000     1.2003020000     0.5141480000 
 C        2.2112190000     2.3167390000     1.0534240000 
 O        2.6922900000     3.3171640000     1.5269120000 
 C        4.4830580000     1.3068040000     0.5528290000 
 O        5.2245120000     0.4518640000     0.1386690000 
 H        0.8305730000    -1.1805230000    -0.6028700000 
 H        0.4749780000     0.5412120000    -0.7537290000 
 H        0.4871290000    -0.2129470000     0.8322550000 
 H        3.1437560000    -0.6492270000    -0.3697400000 
 H        1.1099810000     2.1963110000     1.0049730000 
 H        4.8696230000     2.2410190000     0.9955590000 
*
