! RI PBE def2-SVP def2-SVP/J NBO PAL2
% maxcore 2000
% output
    # printlevel mini
    print[ P_Basis ] 0
    print[ P_SCFInfo ] 1
    print[ P_SCFIterInfo ] 1
    print[ P_OrbEn ] 0
    print[ P_Cartesian ] 0
end
*xyz 0 1
 C        0.7508950000     0.3747470000    -0.1913010000 
 C        2.2014600000     0.0927940000    -0.2864530000 
 C        3.1688100000     0.8131250000     0.2855000000 
 C        4.5768090000     0.4448890000     0.1269640000 
 O        5.0003750000    -0.4993260000    -0.5037480000 
 C        5.6068600000     1.3354750000     0.8222710000 
 O        5.3257210000     2.2989080000     1.4763950000 
 H        0.2240110000    -0.4819210000     0.2418330000 
 H        0.3248380000     0.5197490000    -1.1895740000 
 H        0.5412780000     1.2583340000     0.4122350000 
 H        2.5053410000    -0.7739490000    -0.8713800000 
 H        2.9553520000     1.6915910000     0.8849900000 
 H        6.6495370000     0.9960840000     0.6581790000 
*
