! RI PBE def2-SVP def2-SVP/J NBO PAL2
% maxcore 2000
% output
    # printlevel mini
    print[ P_Basis ] 0
    print[ P_SCFInfo ] 1
    print[ P_SCFIterInfo ] 1
    print[ P_OrbEn ] 0
    print[ P_Cartesian ] 0
end
*xyz 0 1
 C        0.7887550000     1.0110520000     2.3726740000 
 C        2.2245980000     0.6099460000     2.4020610000 
 C        3.0773740000     0.7728650000     1.3954210000 
 C        4.5285220000     0.3717150000     1.3522990000 
 O        5.2658030000     1.2987220000     0.5783180000 
 C        5.1661980000     0.2344700000     2.7245660000 
 O        5.2331090000     1.4881120000     3.3758450000 
 H        0.5544520000     1.7079920000     3.1834030000 
 H        0.1367990000     0.1425680000     2.5106000000 
 H        0.5273040000     1.4868330000     1.4259560000 
 H        2.5621510000     0.1291550000     3.3200710000 
 H        2.7291700000     1.2415780000     0.4765670000 
 H        4.6153590000    -0.5887780000     0.8289650000 
 H        5.4759500000     2.0321240000     1.1690510000 
 H        6.1977080000    -0.0999170000     2.6028310000 
 H        4.6383920000    -0.5111920000     3.3320860000 
 H        4.3292280000     1.8006660000     3.4913660000 
*
