! RI PBE def2-SVP def2-SVP/J NBO PAL2
% maxcore 2000
% output
    # printlevel mini
    print[ P_Basis ] 0
    print[ P_SCFInfo ] 1
    print[ P_SCFIterInfo ] 1
    print[ P_OrbEn ] 0
    print[ P_Cartesian ] 0
end
*xyz 0 1
 C        0.6065930000     0.0647580000    -0.0319220000 
 C        2.0756710000     0.0759250000     0.2070510000 
 C        2.9906710000     0.4538920000    -0.6770720000 
 C        4.4650090000     0.4772890000    -0.4066490000 
 O        5.1911340000    -0.1776050000    -1.4008270000 
 C        4.9314160000     1.9106930000    -0.2801650000 
 O        5.7960360000     2.3611730000    -0.9831110000 
 H        0.1983660000    -0.9420730000     0.0994210000 
 H        0.3611720000     0.4070810000    -1.0385200000 
 H        0.0878830000     0.7083500000     0.6855370000 
 H        2.4105870000    -0.2658410000     1.1859780000 
 H        2.6979990000     0.7781760000    -1.6737070000 
 H        4.6458690000     0.0180190000     0.5809590000 
 H        5.8314080000     0.4701210000    -1.7343700000 
 H        4.4268770000     2.5201320000     0.4933870000 
*
