! RI PBE def2-SVP def2-SVP/J NBO PAL2
% maxcore 2000
% output
    # printlevel mini
    print[ P_Basis ] 0
    print[ P_SCFInfo ] 1
    print[ P_SCFIterInfo ] 1
    print[ P_OrbEn ] 0
    print[ P_Cartesian ] 0
end
*xyz 0 1
 C        0.5603190000    -0.1964140000     0.0940440000 
 C        2.0295510000    -0.2908400000     0.3080550000 
 C        2.8566050000     0.7418830000     0.4144930000 
 C        4.3249450000     0.5976790000     0.6090720000 
 O        4.7461000000     1.1836190000     1.8608710000 
 C        4.7523890000     0.3771120000     2.9192900000 
 O        4.4797880000    -0.7875540000     2.9304910000 
 H        0.2662710000    -0.7018430000    -0.8312640000 
 H        0.2259910000     0.8410230000     0.0395760000 
 H        0.0186320000    -0.6923870000     0.9054630000 
 H        2.4457820000    -1.2938580000     0.3883940000 
 H        2.4713600000     1.7581530000     0.3578230000 
 H        4.8854200000     1.1540780000    -0.1444710000 
 H        4.6228820000    -0.4509750000     0.5860490000 
 H        5.0632740000     0.9527340000     3.8041130000 
*
