! RI PBE def2-SVP def2-SVP/J NBO PAL2
% maxcore 2000
% output
    # printlevel mini
    print[ P_Basis ] 0
    print[ P_SCFInfo ] 1
    print[ P_SCFIterInfo ] 1
    print[ P_OrbEn ] 0
    print[ P_Cartesian ] 0
end
*xyz 0 1
 C        0.9557890000     0.0624850000     0.2852250000 
 C        2.3804350000     0.3363060000    -0.0847750000 
 C        2.9384850000     1.5401370000     0.0552760000 
 C        3.2634180000    -0.7316690000    -0.6359360000 
 O        4.4182370000    -0.5516550000    -0.9517150000 
 C        2.7686260000    -2.1677680000    -0.8489630000 
 O        1.6739280000    -2.5866670000    -0.6083720000 
 H        0.4925220000     0.9751000000     0.6628380000 
 H        0.8775210000    -0.7108760000     1.0515050000 
 H        0.3767950000    -0.2945090000    -0.5684810000 
 H        2.3735230000     2.3778510000     0.4480190000 
 H        3.9728450000     1.7034070000    -0.2225880000 
 H        3.5785880000    -2.7992300000    -1.2685230000 
*
