! RI PBE def2-SVP def2-SVP/J NBO PAL2
% maxcore 2000
% output
    # printlevel mini
    print[ P_Basis ] 0
    print[ P_SCFInfo ] 1
    print[ P_SCFIterInfo ] 1
    print[ P_OrbEn ] 0
    print[ P_Cartesian ] 0
end
*xyz 0 1
 C        0.6172380000     0.5171310000    -0.4299530000 
 C        2.1088410000     0.4602630000    -0.3596600000 
 C        2.9034550000     1.2829670000    -1.0349850000 
 C        2.6958930000    -0.6206690000     0.4883010000 
 O        2.1944790000    -0.4762690000     1.8304410000 
 C        2.5444500000    -1.4372200000     2.6800530000 
 O        3.2236770000    -2.3880960000     2.4244780000 
 H        0.2813970000     1.3132590000    -1.0946390000 
 H        0.1892950000     0.6877510000     0.5613910000 
 H        0.2090250000    -0.4326830000    -0.7913510000 
 H        2.5004110000     2.0433710000    -1.6946330000 
 H        3.9831780000     1.2191480000    -0.9559350000 
 H        3.7858950000    -0.5721660000     0.5074940000 
 H        2.4088500000    -1.6122930000     0.1230010000 
 H        2.1100240000    -1.2230940000     3.6678670000 
*
