! RI PBE def2-SVP def2-SVP/J NBO PAL2
% maxcore 2000
% output
    # printlevel mini
    print[ P_Basis ] 0
    print[ P_SCFInfo ] 1
    print[ P_SCFIterInfo ] 1
    print[ P_OrbEn ] 0
    print[ P_Cartesian ] 0
end
*xyz 0 1
 C        0.8071570000     0.0788220000     0.3051870000 
 C        2.2156470000    -0.2317680000    -0.0849660000 
 C        2.5555320000    -1.6680170000    -0.3088160000 
 C        3.0921040000     0.7570160000    -0.2151340000 
 O        4.4010980000     0.4962900000    -0.5750910000 
 C        5.2407750000     1.5351300000    -0.6909770000 
 O        4.9737430000     2.6847980000    -0.5129910000 
 H        0.1061010000    -0.2720390000    -0.4595080000 
 H        0.6485290000     1.1486720000     0.4477290000 
 H        0.5400080000    -0.4335370000     1.2354890000 
 H        1.9245080000    -2.0908880000    -1.0975190000 
 H        2.3579570000    -2.2522590000     0.5959970000 
 H        3.5982190000    -1.8070430000    -0.5889380000 
 H        2.8658230000     1.8027770000    -0.0575710000 
 H        6.2294900000     1.1531670000    -0.9805000000 
*
