! RI PBE def2-SVP def2-SVP/J NBO PAL2
% maxcore 2000
% output
    # printlevel mini
    print[ P_Basis ] 0
    print[ P_SCFInfo ] 1
    print[ P_SCFIterInfo ] 1
    print[ P_OrbEn ] 0
    print[ P_Cartesian ] 0
end
*xyz 0 1
 C        1.0733060000     0.0411150000     0.0325040000 
 C        2.5968850000     0.0415760000     0.0238480000 
 C        3.1604900000     0.3436120000     1.4187540000 
 C        3.0768920000    -1.3402410000    -0.3729060000 
 O        3.7181500000    -1.6005640000    -1.3511930000 
 C        3.1584770000     1.0657170000    -0.9430070000 
 O        2.4968210000     1.8726930000    -1.5314100000 
 H        0.6926850000    -0.7249650000     0.7127060000 
 H        0.6733550000    -0.1431060000    -0.9655230000 
 H        0.7032790000     1.0120500000     0.3645090000 
 H        2.8838020000    -0.4482560000     2.1198220000 
 H        2.7531080000     1.2846450000     1.7938720000 
 H        4.2507990000     0.4187530000     1.4063110000 
 H        2.7706660000    -2.1390090000     0.3409480000 
 H        4.2618770000     1.0396690000    -1.0513440000 
*
