! RI PBE def2-SVP def2-SVP/J NBO PAL2
% maxcore 2000
% output
    # printlevel mini
    print[ P_Basis ] 0
    print[ P_SCFInfo ] 1
    print[ P_SCFIterInfo ] 1
    print[ P_OrbEn ] 0
    print[ P_Cartesian ] 0
end
*xyz 0 1
 C        1.0278220000     0.1980950000    -0.3112340000 
 C        2.5027580000     0.2928920000    -0.6639700000 
 C        2.7728820000    -0.0836830000    -2.1110600000 
 C        3.0394700000     1.6796490000    -0.3607010000 
 O        3.2859830000    -0.5636940000     0.2295470000 
 C        3.1078430000    -1.8770980000     0.2625100000 
 O        2.3387620000    -2.5330820000    -0.3803880000 
 H        0.4714570000     0.9354990000    -0.8942730000 
 H        0.8746650000     0.4186040000     0.7475590000 
 H        0.6288740000    -0.7910570000    -0.5293610000 
 H        2.2874630000     0.6422940000    -2.7672370000 
 H        2.3875450000    -1.0750220000    -2.3432710000 
 H        3.8454620000    -0.0611300000    -2.3164580000 
 H        2.5251430000     2.4206630000    -0.9753930000 
 H        4.1087530000     1.7335330000    -0.5738500000 
 H        2.8833660000     1.9314020000     0.6899910000 
 H        3.8036320000    -2.3023640000     1.0036780000 
*
