! RI PBE def2-SVP def2-SVP/J NBO PAL2
% maxcore 2000
% output
    # printlevel mini
    print[ P_Basis ] 0
    print[ P_SCFInfo ] 1
    print[ P_SCFIterInfo ] 1
    print[ P_OrbEn ] 0
    print[ P_Cartesian ] 0
end
*xyz 0 1
 C        0.9807350000    -0.0252660000    -0.2539510000 
 C        2.4785020000     0.1136790000    -0.0558020000 
 C        3.1551920000     0.8053170000    -1.2459270000 
 C        2.8021540000     0.8888190000     1.1909810000 
 O        2.0427230000     1.6226420000     1.7723470000 
 C        4.2096070000     0.7469670000     1.7808730000 
 O        5.0194060000    -0.0470480000     1.3963940000 
 H        0.7726380000    -0.5979120000    -1.1600990000 
 H        0.5097050000     0.9547560000    -0.3499060000 
 H        0.5108950000    -0.5348620000     0.5893360000 
 H        2.9470000000    -0.8705160000     0.0596090000 
 H        2.7450960000     1.8078710000    -1.3917670000 
 H        2.9716240000     0.2296830000    -2.1551060000 
 H        4.2350930000     0.8841640000    -1.1111750000 
 H        4.3917300000     1.4385040000     2.6287940000 
*
