! RI PBE def2-SVP def2-SVP/J NBO PAL2
% maxcore 2000
% output
    # printlevel mini
    print[ P_Basis ] 0
    print[ P_SCFInfo ] 1
    print[ P_SCFIterInfo ] 1
    print[ P_OrbEn ] 0
    print[ P_Cartesian ] 0
end
*xyz 0 1
 C        0.8887470000    -0.2095070000     0.1532770000 
 C        2.3858510000    -0.1556380000    -0.1164470000 
 C        2.8914270000    -1.4646070000    -0.7046570000 
 C        2.7502330000     1.0144080000    -1.0431700000 
 O        2.1359700000     0.9126790000    -2.2901800000 
 C        2.4256960000     2.3347410000    -0.4043840000 
 O        1.7421820000     3.1610640000    -0.9497420000 
 H        0.6481380000    -1.0485270000     0.8097200000 
 H        0.3390610000    -0.3425520000    -0.7807260000 
 H        0.5209040000     0.7026520000     0.6316960000 
 H        2.9123420000     0.0250510000     0.8305850000 
 H        2.4229940000    -1.6528130000    -1.6730380000 
 H        2.6546340000    -2.3014520000    -0.0434500000 
 H        3.9744850000    -1.4456590000    -0.8513980000 
 H        3.8499910000     1.0084770000    -1.1605130000 
 H        1.6766360000     1.7539960000    -2.4324800000 
 H        2.8579980000     2.5140760000     0.6002990000 
*
