! RI PBE def2-SVP def2-SVP/J NBO PAL2
% maxcore 2000
% output
    # printlevel mini
    print[ P_Basis ] 0
    print[ P_SCFInfo ] 1
    print[ P_SCFIterInfo ] 1
    print[ P_OrbEn ] 0
    print[ P_Cartesian ] 0
end
*xyz 0 1
 C        0.8180140000    -0.0672330000     0.1614040000 
 C        2.3317570000    -0.2144320000     0.1012320000 
 C        2.7391050000    -1.5823180000    -0.4253830000 
 C        2.9043390000     0.9072600000    -0.7472450000 
 O        4.3398830000     0.8795600000    -0.7897710000 
 C        4.9778830000     1.5440960000     0.1694980000 
 O        4.4753440000     2.1620470000     1.0626060000 
 H        0.3789440000    -0.8518070000     0.7812510000 
 H        0.3752710000    -0.1497520000    -0.8364640000 
 H        0.5235170000     0.8971080000     0.5826410000 
 H        2.7304160000    -0.0894970000     1.1144680000 
 H        2.3320640000    -1.7488150000    -1.4280840000 
 H        2.3599930000    -2.3759880000     0.2226010000 
 H        3.8243690000    -1.6837860000    -0.4836320000 
 H        2.5820040000     1.8795470000    -0.3704650000 
 H        2.5927170000     0.8001670000    -1.7889910000 
 H        6.0624800000     1.4443320000     0.0140340000 
*
