! RI PBE def2-SVP def2-SVP/J NBO PAL2
% maxcore 2000
% output
    # printlevel mini
    print[ P_Basis ] 0
    print[ P_SCFInfo ] 1
    print[ P_SCFIterInfo ] 1
    print[ P_OrbEn ] 0
    print[ P_Cartesian ] 0
end
*xyz 0 1
 C        1.0123100000     0.7143470000     0.4200910000 
 C        2.3768230000     0.4701750000    -0.2039570000 
 C        2.3690730000    -0.7611450000    -1.1262830000 
 C        3.6858890000    -1.0048030000    -1.8561210000 
 O        4.8087360000    -0.9461710000    -1.0092760000 
 C        2.8544430000     1.6689270000    -0.9740710000 
 O        4.0148370000     1.9548500000    -1.1260390000 
 H        0.6771690000    -0.1712920000     0.9635560000 
 H        0.2624910000     0.9369430000    -0.3448390000 
 H        1.0332980000     1.5496660000     1.1240590000 
 H        3.1227800000     0.2870690000     0.5752710000 
 H        1.5643890000    -0.6716220000    -1.8663710000 
 H        2.1280070000    -1.6257410000    -0.4998260000 
 H        3.7927420000    -0.2953900000    -2.6867500000 
 H        3.6702300000    -2.0059850000    -2.2944600000 
 H        4.9960130000    -0.0121080000    -0.8543520000 
 H        2.0630700000     2.2957700000    -1.4427320000 
*
