! RI PBE def2-SVP def2-SVP/J NBO PAL2
% maxcore 2000
% output
    # printlevel mini
    print[ P_Basis ] 0
    print[ P_SCFInfo ] 1
    print[ P_SCFIterInfo ] 1
    print[ P_OrbEn ] 0
    print[ P_Cartesian ] 0
end
*xyz 0 1
 C        1.0720550000     0.0160670000    -0.1137140000 
 C        2.5172740000    -0.0370260000    -0.1071870000 
 C        3.7221010000    -0.0776960000    -0.0681760000 
 C        5.1689370000    -0.1414520000    -0.0506260000 
 O        5.8039790000    -0.1925610000     0.9740860000 
 C        5.8445280000    -0.1961220000    -1.4100320000 
 O        5.0582410000     0.2244210000    -2.4878530000 
 H        0.7101650000     0.7065240000    -0.8790520000 
 H        0.6924320000     0.3426180000     0.8568870000 
 H        0.6562000000    -0.9722740000    -0.3259490000 
 H        6.2011730000    -1.2313520000    -1.5318280000 
 H        6.7264550000     0.4453910000    -1.3635090000 
 H        4.1808510000    -0.1615290000    -2.3943350000 
*
