! RI PBE def2-SVP def2-SVP/J NBO PAL2
% maxcore 2000
% output
    # printlevel mini
    print[ P_Basis ] 0
    print[ P_SCFInfo ] 1
    print[ P_SCFIterInfo ] 1
    print[ P_OrbEn ] 0
    print[ P_Cartesian ] 0
end
*xyz 0 1
 C        0.9347560000    -0.0613610000     0.0723470000 
 C        2.3845950000    -0.0749580000     0.0612800000 
 C        3.5871900000    -0.1017770000     0.0401980000 
 C        5.0430160000    -0.0904020000     0.0485360000 
 O        5.5865520000     0.8647110000    -0.8587520000 
 C        5.5960520000     0.1727920000     1.4469050000 
 O        6.9966010000     0.1948600000     1.4258710000 
 H        0.5388620000    -1.0770960000     0.1472520000 
 H        0.5434920000     0.3833290000    -0.8459310000 
 H        0.5510200000     0.5143450000     0.9179220000 
 H        5.4271410000    -1.0570670000    -0.2934070000 
 H        5.0326420000     1.6506690000    -0.8211560000 
 H        5.2833580000    -0.6223800000     2.1271500000 
 H        5.1777910000     1.1210080000     1.8180200000 
 H        7.2464240000     0.7393370000     0.6700450000 
*
