! RI PBE def2-SVP def2-SVP/J NBO PAL2
% maxcore 2000
% output
    # printlevel mini
    print[ P_Basis ] 0
    print[ P_SCFInfo ] 1
    print[ P_SCFIterInfo ] 1
    print[ P_OrbEn ] 0
    print[ P_Cartesian ] 0
end
*xyz 0 1
 C        1.0320500000    -0.0642920000    -0.0494320000 
 C        2.4807540000    -0.0548900000    -0.0732750000 
 C        3.6836180000    -0.0673810000    -0.1098940000 
 C        5.1375850000    -0.0352730000    -0.0864130000 
 O        5.6799090000     1.1444690000    -0.6449180000 
 C        5.5968750000    -0.1616130000     1.3676830000 
 O        6.0190440000    -1.1675390000     1.8545340000 
 H        0.6247640000    -0.1462230000    -1.0599070000 
 H        0.6409220000     0.8498690000     0.4031270000 
 H        0.6647240000    -0.9124740000     0.5332800000 
 H        5.5520870000    -0.8849890000    -0.6369100000 
 H        5.0258550000     1.8443600000    -0.5655740000 
 H        5.5163110000     0.7890960000     1.9384990000 
*
