! RI PBE def2-SVP def2-SVP/J NBO PAL2
% maxcore 2000
% output
    # printlevel mini
    print[ P_Basis ] 0
    print[ P_SCFInfo ] 1
    print[ P_SCFIterInfo ] 1
    print[ P_OrbEn ] 0
    print[ P_Cartesian ] 0
end
*xyz 0 1
 C        2.1937330000     1.3918420000    -0.7575780000 
 C        3.1221620000     0.2331540000    -0.4097800000 
 C        3.2800910000     0.0446860000     1.0612670000 
 C        4.4420590000     0.1257580000     1.6874300000 
 O        4.5001200000    -0.0542180000     3.0550110000 
 C        5.6989940000     0.0393590000     3.6513070000 
 O        6.7399950000     0.2665870000     3.1139460000 
 H        2.0712400000     1.4839360000    -1.8390360000 
 H        2.5889160000     2.3366170000    -0.3778100000 
 H        1.2022630000     1.2469460000    -0.3205580000 
 H        4.1036690000     0.3890550000    -0.8673280000 
 H        2.7200620000    -0.6886560000    -0.8470980000 
 H        2.3864270000    -0.1574460000     1.6472550000 
 H        5.3947660000     0.3258060000     1.2134370000 
 H        5.5660140000    -0.1292260000     4.7285260000 
*
