! RI PBE def2-SVP def2-SVP/J NBO PAL2
% maxcore 2000
% output
    # printlevel mini
    print[ P_Basis ] 0
    print[ P_SCFInfo ] 1
    print[ P_SCFIterInfo ] 1
    print[ P_OrbEn ] 0
    print[ P_Cartesian ] 0
end
*xyz 0 1
 C        1.8619340000    -0.9817780000    -1.2229030000 
 C        1.8267110000    -0.0594030000    -0.0092570000 
 C        2.5375600000    -0.6175460000     1.1798130000 
 C        1.9602520000    -0.9542890000     2.3262190000 
 O        3.8914740000    -0.7226000000     0.8853180000 
 C        4.8181780000    -1.2564660000     1.6941240000 
 O        4.6634560000    -1.7246230000     2.7792330000 
 H        1.3405760000    -0.5252330000    -2.0666540000 
 H        1.3788130000    -1.9359570000    -1.0009580000 
 H        2.8881290000    -1.1855610000    -1.5332820000 
 H        0.7944510000     0.1445420000     0.2813700000 
 H        2.2840050000     0.9021980000    -0.2680430000 
 H        0.8911420000    -0.8061390000     2.4090890000 
 H        2.4977070000    -1.3629070000     3.1651430000 
 H        5.7860120000    -1.1919480000     1.1751880000 
*
