! RI PBE def2-SVP def2-SVP/J NBO PAL2
% maxcore 2000
% output
    # printlevel mini
    print[ P_Basis ] 0
    print[ P_SCFInfo ] 1
    print[ P_SCFIterInfo ] 1
    print[ P_OrbEn ] 0
    print[ P_Cartesian ] 0
end
*xyz 0 1
 C        2.7234990000     0.5870070000    -1.5217890000 
 C        2.6135010000     0.2706810000    -0.0395570000 
 C        3.1919980000     1.3154840000     0.9151700000 
 C        2.5177610000     2.6705040000     0.7752670000 
 O        3.0428920000     0.8390970000     2.2572480000 
 C        4.7017930000     1.4695300000     0.7598240000 
 O        5.3912330000     0.2639080000     0.9663460000 
 H        2.2717250000    -0.2112520000    -2.1144220000 
 H        3.7662280000     0.6718150000    -1.8349470000 
 H        2.2131910000     1.5166710000    -1.7833950000 
 H        3.1161090000    -0.6770660000     0.1701780000 
 H        1.5553800000     0.1355540000     0.2228660000 
 H        1.4335420000     2.5757360000     0.8848770000 
 H        2.7188510000     3.1236680000    -0.1979490000 
 H        2.8802790000     3.3473680000     1.5512000000 
 H        2.1507510000     0.4977200000     2.3622120000 
 H        5.0357470000     2.2424970000     1.4665180000 
 H        4.9443860000     1.8134960000    -0.2475410000 
 H        5.0704310000    -0.0845190000     1.8056970000 
*
