! RI PBE def2-SVP def2-SVP/J NBO PAL2
% maxcore 2000
% output
    # printlevel mini
    print[ P_Basis ] 0
    print[ P_SCFInfo ] 1
    print[ P_SCFIterInfo ] 1
    print[ P_OrbEn ] 0
    print[ P_Cartesian ] 0
end
*xyz 0 1
 C        0.9367700000     0.1192890000     0.3465350000 
 C        2.3915370000     0.0886960000    -0.0884900000 
 C        3.1896290000    -0.9764730000     0.6407650000 
 C        4.6478000000    -1.0159200000     0.2810120000 
 O        5.2031170000    -0.1395180000    -0.3404580000 
 C        5.4540910000    -2.2125320000     0.7330140000 
 O        6.7981070000    -2.0705640000     0.4150430000 
 H        0.3797420000     0.8878680000    -0.1930730000 
 H        0.8458520000     0.3338790000     1.4152000000 
 H        0.4432810000    -0.8389080000     0.1602350000 
 H        2.8602250000     1.0610750000     0.0810560000 
 H        2.4588770000    -0.0891730000    -1.1658200000 
 H        2.7630440000    -1.9743210000     0.4810400000 
 H        3.1379240000    -0.8169460000     1.7268560000 
 H        5.0217930000    -3.1057170000     0.2550810000 
 H        5.3152910000    -2.3420120000     1.8160770000 
 H        6.8538290000    -1.2381130000    -0.0809620000 
*
