! RI PBE def2-SVP def2-SVP/J NBO PAL2
% maxcore 2000
% output
    # printlevel mini
    print[ P_Basis ] 0
    print[ P_SCFInfo ] 1
    print[ P_SCFIterInfo ] 1
    print[ P_OrbEn ] 0
    print[ P_Cartesian ] 0
end
*xyz 0 1
 C        1.0815680000     0.4175290000     0.1303210000 
 C        2.5930450000     0.5282990000     0.2329720000 
 C        3.3032980000     0.1124760000    -1.0459980000 
 C        4.8164320000     0.1628670000    -0.9554760000 
 O        5.3303650000    -0.7309840000     0.0283090000 
 C        5.4931240000    -0.1230650000    -2.2839550000 
 O        6.8916160000    -0.0997280000    -2.1636170000 
 H        0.5950010000     0.7257750000     1.0582820000 
 H        0.7732860000    -0.6109170000    -0.0788810000 
 H        0.6905470000     1.0471100000    -0.6740730000 
 H        2.9575080000    -0.0844590000     1.0626940000 
 H        2.8721430000     1.5598680000     0.4749940000 
 H        2.9807530000     0.7568130000    -1.8727390000 
 H        2.9990570000    -0.9069700000    -1.3247250000 
 H        5.1361510000     1.1534730000    -0.6137910000 
 H        4.9459900000    -1.5993590000    -0.1319590000 
 H        5.2132360000     0.6334830000    -3.0221700000 
 H        5.1435790000    -1.0996630000    -2.6615160000 
 H        7.0926120000    -0.5329500000    -1.3255710000 
*
