! RI PBE def2-SVP def2-SVP/J NBO PAL2
% maxcore 2000
% output
    # printlevel mini
    print[ P_Basis ] 0
    print[ P_SCFInfo ] 1
    print[ P_SCFIterInfo ] 1
    print[ P_OrbEn ] 0
    print[ P_Cartesian ] 0
end
*xyz 0 1
 C        1.0859800000    -0.3270030000     0.0204260000 
 C        2.6036240000    -0.2724080000     0.0316410000 
 C        3.1365310000     1.0309060000     0.6050110000 
 C        4.6598080000     1.1098740000     0.5594580000 
 O        5.1418360000     1.0583540000    -0.7479010000 
 C        5.1452140000     2.3536280000     1.2490080000 
 O        5.8543580000     3.1543490000     0.6985740000 
 H        0.7257300000    -1.2724270000    -0.3909420000 
 H        0.6673790000     0.4793000000    -0.5882220000 
 H        0.6753440000    -0.2259080000     1.0292650000 
 H        2.9914930000    -0.3939360000    -0.9832650000 
 H        3.0015650000    -1.1096000000     0.6170240000 
 H        2.8029110000     1.1446860000     1.6441000000 
 H        2.7314760000     1.8789140000     0.0409730000 
 H        5.0627020000     0.2636230000     1.1470530000 
 H        5.7037610000     1.8407100000    -0.8562140000 
 H        4.8145990000     2.4978470000     2.2966110000 
*
