! RI PBE def2-SVP def2-SVP/J NBO PAL2
% maxcore 2000
% output
    # printlevel mini
    print[ P_Basis ] 0
    print[ P_SCFInfo ] 1
    print[ P_SCFIterInfo ] 1
    print[ P_OrbEn ] 0
    print[ P_Cartesian ] 0
end
*xyz 0 1
 C        1.3061830000    -0.6869000000    -0.1853960000 
 C        1.5978560000     0.6989270000     0.3697200000 
 C        1.9039860000     1.7367350000    -0.7002370000 
 C        0.6959010000     2.0938910000    -1.5451590000 
 O        1.0061350000     3.0653940000    -2.5108920000 
 O        2.3355140000     2.9659210000    -0.1346840000 
 C        3.6877370000     2.9959550000     0.2361920000 
 H        1.1674620000    -1.4075790000     0.6230260000 
 H        2.1304780000    -1.0453240000    -0.8085170000 
 H        0.4000260000    -0.7036610000    -0.7945390000 
 H        2.4530430000     0.6381080000     1.0493770000 
 H        0.7544810000     1.0576060000     0.9692050000 
 H        2.6948050000     1.3602760000    -1.3690880000 
 H       -0.1077870000     2.4385230000    -0.8764790000 
 H        0.3355100000     1.2130070000    -2.0793440000 
 H        1.4734910000     3.7627000000    -2.0377530000 
 H        3.9014730000     4.0010980000     0.6011760000 
 H        4.3415800000     2.7812790000    -0.6197120000 
 H        3.9168190000     2.2818340000     1.0364920000 
*
