! RI PBE def2-SVP def2-SVP/J NBO PAL2
% maxcore 2000
% output
    # printlevel mini
    print[ P_Basis ] 0
    print[ P_SCFInfo ] 1
    print[ P_SCFIterInfo ] 1
    print[ P_OrbEn ] 0
    print[ P_Cartesian ] 0
end
*xyz 0 1
 C        1.4521520000     1.1204820000     0.2346910000 
 C        2.3377620000     0.1363150000     0.2591500000 
 C        3.1058640000    -0.2684960000     1.4682880000 
 O        4.4762540000    -0.3541890000     1.1357720000 
 C        5.2531220000    -0.8004900000     2.1933930000 
 C        6.6736600000    -0.3769080000     2.1958490000 
 C        5.7217190000     0.1838810000     3.2205820000 
 H        0.8910560000     1.3574400000    -0.6616780000 
 H        1.2518810000     1.7242540000     1.1146050000 
 H        2.5324930000    -0.4490840000    -0.6361920000 
 H        2.7538740000    -1.2524170000     1.8198730000 
 H        2.9484340000     0.4474690000     2.2863900000 
 H        5.0144630000    -1.8091440000     2.5306530000 
 H        6.9761020000     0.2841590000     1.3936870000 
 H        7.4245920000    -1.0897230000     2.5120660000 
 H        5.4117260000     1.2126200000     3.0843550000 
 H        5.8115260000    -0.1374670000     4.2508960000 
*
