! RI PBE def2-SVP def2-SVP/J NBO PAL2
% maxcore 2000
% output
    # printlevel mini
    print[ P_Basis ] 0
    print[ P_SCFInfo ] 1
    print[ P_SCFIterInfo ] 1
    print[ P_OrbEn ] 0
    print[ P_Cartesian ] 0
end
*xyz 0 1
 C        1.2836440000    -0.0126830000     0.5895830000 
 C        1.8673630000     1.1279310000     0.2376900000 
 C        3.2938880000     1.3153160000    -0.1154040000 
 O        3.6821760000     2.4266660000    -0.4188980000 
 C        4.2225000000     0.1597110000    -0.0953380000 
 C        5.3378020000     0.1655080000    -1.1149970000 
 C        5.6523400000     0.4429250000     0.3033960000 
 H        1.8228840000    -0.9503460000     0.6528270000 
 H        0.2272540000    -0.0468480000     0.8305230000 
 H        1.2940550000     2.0488740000     0.1852080000 
 H        3.8210690000    -0.8046840000     0.1823550000 
 H        5.3386970000     1.0067040000    -1.7965280000 
 H        5.6190110000    -0.7902230000    -1.5382770000 
 H        5.8640230000     1.4700230000     0.5723930000 
 H        6.1569940000    -0.3157660000     0.8876680000 
*
