! RI PBE def2-SVP def2-SVP/J NBO PAL2
% maxcore 2000
% output
    # printlevel mini
    print[ P_Basis ] 0
    print[ P_SCFInfo ] 1
    print[ P_SCFIterInfo ] 1
    print[ P_OrbEn ] 0
    print[ P_Cartesian ] 0
end
*xyz 0 1
 C        1.7834450000     1.2611000000    -2.5900910000 
 C        2.6526060000     0.5460980000    -2.1763790000 
 C        3.6808140000    -0.3391330000    -1.6576860000 
 O        4.9536040000     0.0871360000    -2.0905830000 
 C        5.9661660000    -0.7182750000    -1.5865230000 
 C        7.2923680000    -0.0789400000    -1.4210140000 
 C        6.4846550000    -0.4547430000    -0.2060070000 
 H        1.0172670000     1.8998410000    -2.9612870000 
 H        3.4829070000    -1.3656630000    -2.0013150000 
 H        3.6345260000    -0.3518110000    -0.5593010000 
 H        5.9291920000    -1.7522980000    -1.9282570000 
 H        7.3486660000     0.9737900000    -1.6665800000 
 H        8.1754950000    -0.6562110000    -1.6628930000 
 H        6.0232400000     0.3585810000     0.3407160000 
 H        6.8070590000    -1.2922640000     0.4001010000 
*
