! RI PBE def2-SVP def2-SVP/J NBO PAL2
% maxcore 2000
% output
    # printlevel mini
    print[ P_Basis ] 0
    print[ P_SCFInfo ] 1
    print[ P_SCFIterInfo ] 1
    print[ P_OrbEn ] 0
    print[ P_Cartesian ] 0
end
*xyz 0 1
 C        0.3176370000     0.5853080000    -1.0231530000 
 C        1.7764860000     0.2907930000    -0.9502880000 
 C        2.5352060000     0.0839890000    -2.0181220000 
 O        3.8748670000    -0.1334150000    -1.9269050000 
 C        4.4558790000    -0.6789940000    -3.0702140000 
 C        4.7738570000     0.2227250000    -4.2204850000 
 C        5.8663130000    -0.3034440000    -3.3277630000 
 H       -0.2676890000    -0.1512460000    -0.4633860000 
 H       -0.0388420000     0.5804670000    -2.0558260000 
 H        0.0832370000     1.5652320000    -0.5944840000 
 H        2.2473580000     0.2538340000     0.0283450000 
 H        2.1354310000     0.1022520000    -3.0309210000 
 H        4.1413960000    -1.6978610000    -3.2835150000 
 H        4.5100980000     1.2669410000    -4.1081320000 
 H        4.6836720000    -0.1692250000    -5.2259270000 
 H        6.3087090000     0.3952080000    -2.6292480000 
 H        6.5386970000    -1.0603930000    -3.7103880000 
*
