! RI PBE def2-SVP def2-SVP/J NBO PAL2
% maxcore 2000
% output
    # printlevel mini
    print[ P_Basis ] 0
    print[ P_SCFInfo ] 1
    print[ P_SCFIterInfo ] 1
    print[ P_OrbEn ] 0
    print[ P_Cartesian ] 0
end
*xyz 0 1
 C        0.6553310000    -0.5182020000    -0.1064640000 
 C        2.0732650000     0.0147580000    -0.0360640000 
 C        3.1005850000    -1.0304920000    -0.3941830000 
 O        2.8558550000    -2.1677570000    -0.6900910000 
 C        2.2944500000     1.2365730000    -0.8999190000 
 C        1.9328270000     2.5948820000    -0.3844460000 
 C        3.3725670000     2.2243210000    -0.5684830000 
 H        0.5324720000    -1.3967230000     0.5283630000 
 H        0.4072540000    -0.8183830000    -1.1267420000 
 H       -0.0557310000     0.2476290000     0.2086960000 
 H        2.3125900000     0.3076680000     0.9986290000 
 H        4.1506880000    -0.6642170000    -0.3782150000 
 H        2.1118350000     1.0682350000    -1.9576730000 
 H        1.5530430000     2.6601720000     0.6286670000 
 H        1.4932720000     3.3048790000    -1.0733460000 
 H        3.9633480000     2.0474250000     0.3228620000 
 H        3.9219490000     2.6798410000    -1.3825010000 
*
