! RI PBE def2-SVP def2-SVP/J NBO PAL2
% maxcore 2000
% output
    # printlevel mini
    print[ P_Basis ] 0
    print[ P_SCFInfo ] 1
    print[ P_SCFIterInfo ] 1
    print[ P_OrbEn ] 0
    print[ P_Cartesian ] 0
end
*xyz 0 1
 C        1.0916100000    -0.1952110000     0.1344180000 
 C        2.5944120000     0.0556880000     0.1566430000 
 C        2.9461010000     1.1648140000     1.1405260000 
 O        3.2740600000    -1.1416360000     0.5223930000 
 C        3.0756780000     0.4262350000    -1.2312200000 
 C        4.4909040000     0.1920870000    -1.6523350000 
 C        3.3814970000    -0.6202340000    -2.2541300000 
 H        0.7302000000    -0.4714680000     1.1302480000 
 H        0.8580340000    -1.0061400000    -0.5576160000 
 H        0.5469900000     0.6984010000    -0.1802880000 
 H        2.6101930000     0.9078380000     2.1503690000 
 H        2.4673290000     2.1065620000     0.8610860000 
 H        4.0265360000     1.3173020000     1.1616830000 
 H        2.9799870000    -1.3907230000     1.4021860000 
 H        2.6108100000     1.3348330000    -1.6013550000 
 H        5.1381920000    -0.3140140000    -0.9477120000 
 H        4.9738020000     0.9437290000    -2.2646140000 
 H        3.3093570000    -1.6536500000    -1.9403250000 
 H        3.0990190000    -0.4294910000    -3.2821570000 
*
