! RI PBE def2-SVP def2-SVP/J NBO PAL2
% maxcore 2000
% output
    # printlevel mini
    print[ P_Basis ] 0
    print[ P_SCFInfo ] 1
    print[ P_SCFIterInfo ] 1
    print[ P_OrbEn ] 0
    print[ P_Cartesian ] 0
end
*xyz 0 1
 C        1.8205050000    -0.2355520000    -0.9125980000 
 C        2.7494750000     0.3912450000     0.1200370000 
 C        2.5535730000     1.9017780000     0.2113940000 
 O        1.2586080000     2.2829420000     0.6307530000 
 C        2.5971410000    -0.2631360000     1.4701640000 
 C        3.2742040000    -1.5664870000     1.7563430000 
 C        3.7527310000    -0.3081470000     2.4200740000 
 H        1.9339100000     0.2359050000    -1.8934350000 
 H        0.7730470000    -0.1454100000    -0.6084790000 
 H        2.0264000000    -1.3017530000    -1.0255340000 
 H        3.7857850000     0.2377330000    -0.2124450000 
 H        3.2380790000     2.3127520000     0.9573450000 
 H        2.7996290000     2.3639310000    -0.7555390000 
 H        0.6377850000     2.0638300000    -0.0679710000 
 H        1.6199140000    -0.1207200000     1.9210540000 
 H        3.8990020000    -1.9902790000     0.9778350000 
 H        2.7563870000    -2.3011820000     2.3604410000 
 H        4.6972620000     0.1066890000     2.0857720000 
 H        3.5592430000    -0.1788280000     3.4775590000 
*
