! RI PBE def2-SVP def2-SVP/J NBO PAL2
% maxcore 2000
% output
    # printlevel mini
    print[ P_Basis ] 0
    print[ P_SCFInfo ] 1
    print[ P_SCFIterInfo ] 1
    print[ P_OrbEn ] 0
    print[ P_Cartesian ] 0
end
*xyz 0 1
 C        1.0721420000     0.3508440000    -0.3514360000 
 C        2.4884940000    -0.0573160000    -0.7152410000 
 C        3.2929510000    -0.5735840000     0.4707250000 
 O        2.6747050000    -1.7055690000     1.0649320000 
 C        4.7247750000    -0.8477580000     0.0995340000 
 C        5.7482480000     0.2394640000     0.2267790000 
 C        5.7656820000    -0.9246750000     1.1694990000 
 H        0.5126800000     0.6729680000    -1.2324810000 
 H        1.0750860000     1.1800700000     0.3617110000 
 H        0.5349120000    -0.4792910000     0.1104330000 
 H        3.0279160000     0.7877940000    -1.1559070000 
 H        2.4689350000    -0.8408500000    -1.4845640000 
 H        3.2829480000     0.1861370000     1.2622540000 
 H        2.7505410000    -2.4409850000     0.4498600000 
 H        4.8470690000    -1.5209360000    -0.7469020000 
 H        5.4162400000     1.1970740000     0.6117540000 
 H        6.5246040000     0.3066490000    -0.5250200000 
 H        5.4369840000    -0.7601340000     2.1887010000 
 H        6.5581970000    -1.6552900000     1.0670670000 
*
