! RI PBE def2-SVP def2-SVP/J NBO PAL2
% maxcore 2000
% output
    # printlevel mini
    print[ P_Basis ] 0
    print[ P_SCFInfo ] 1
    print[ P_SCFIterInfo ] 1
    print[ P_OrbEn ] 0
    print[ P_Cartesian ] 0
end
*xyz 0 1
 C        1.5232230000    -0.1618660000    -0.5748740000 
 C        1.5238980000     0.6365960000     0.4884540000 
 C        2.6090850000     0.7690780000     1.4830300000 
 O        2.4952530000     1.5406430000     2.4071050000 
 C        3.8662520000    -0.0374380000     1.3170020000 
 C        5.1490340000     0.6284120000     1.5795680000 
 O        4.5987340000    -0.2789180000     2.5005140000 
 H        2.3485260000    -0.8208290000    -0.8161500000 
 H        0.6786140000    -0.1819420000    -1.2540370000 
 H        0.6765320000     1.2835420000     0.6952800000 
 H        3.8520400000    -0.8706960000     0.6216100000 
 H        5.1259550000     1.6694380000     1.8905630000 
 H        6.0356460000     0.2893610000     1.0493430000 
*
