! RI PBE def2-SVP def2-SVP/J NBO PAL2
% maxcore 2000
% output
    # printlevel mini
    print[ P_Basis ] 0
    print[ P_SCFInfo ] 1
    print[ P_SCFIterInfo ] 1
    print[ P_OrbEn ] 0
    print[ P_Cartesian ] 0
end
*xyz 0 1
 C        1.0878010000     0.0671200000     0.0338920000 
 C        2.5672850000    -0.1373790000    -0.2582530000 
 C        2.8061320000    -0.4578250000    -1.7290320000 
 O        3.3038260000     1.0211190000     0.1044540000 
 C        3.0836980000    -1.2868720000     0.5837200000 
 C        4.3177320000    -1.2160650000     1.3554050000 
 O        3.0471900000    -1.1395510000     1.9884310000 
 H        0.6901500000     0.8931860000    -0.5648230000 
 H        0.9459390000     0.2918900000     1.0922780000 
 H        0.5092840000    -0.8261850000    -0.2122540000 
 H        2.4430560000     0.3615500000    -2.3544350000 
 H        2.2860670000    -1.3702410000    -2.0315430000 
 H        3.8739800000    -0.5837230000    -1.9182010000 
 H        2.7657340000     1.7921340000    -0.0888630000 
 H        2.7524870000    -2.2645490000     0.2321170000 
 H        4.8809540000    -0.2890810000     1.3514430000 
 H        4.8781950000    -2.1269380000     1.5522850000 
*
