! RI PBE def2-SVP def2-SVP/J NBO PAL2
% maxcore 2000
% output
    # printlevel mini
    print[ P_Basis ] 0
    print[ P_SCFInfo ] 1
    print[ P_SCFIterInfo ] 1
    print[ P_OrbEn ] 0
    print[ P_Cartesian ] 0
end
*xyz 0 1
 C        1.2547410000     0.1226930000    -0.7289160000 
 C        2.6198780000    -0.0313290000    -0.0676950000 
 C        3.1616880000     1.3142940000     0.4117750000 
 O        2.3116600000     1.9768630000     1.3141050000 
 C        2.5589600000    -1.0745880000     1.0221960000 
 C        3.5097740000    -1.1879760000     2.1231050000 
 O        2.2120220000    -0.6472880000     2.3435030000 
 H        1.3089370000     0.8148510000    -1.5721310000 
 H        0.5246420000     0.5190950000    -0.0214980000 
 H        0.8867510000    -0.8361720000    -1.1024010000 
 H        3.3295360000    -0.4113980000    -0.8158530000 
 H        3.2714790000     1.9735230000    -0.4536760000 
 H        4.1678410000     1.1838090000     0.8368120000 
 H        2.1255910000     1.3510820000     2.0258840000 
 H        2.0449730000    -1.9917400000     0.7332680000 
 H        4.3278900000    -0.4794030000     2.2140260000 
 H        3.6828380000    -2.1586150000     2.5804660000 
*
