! RI PBE def2-SVP def2-SVP/J NBO PAL2
% maxcore 2000
% output
    # printlevel mini
    print[ P_Basis ] 0
    print[ P_SCFInfo ] 1
    print[ P_SCFIterInfo ] 1
    print[ P_OrbEn ] 0
    print[ P_Cartesian ] 0
end
*xyz 0 1
 C        1.4798980000     0.7707770000     0.4532290000 
 C        2.7283720000     0.3941880000     0.2025180000 
 C        3.0155620000    -0.6883870000    -0.7695110000 
 O        2.1538490000    -1.2747380000    -1.3760800000 
 C        4.4805940000    -1.0876080000    -0.9464980000 
 C        5.3969700000     0.0299650000    -1.0652950000 
 C        6.1414290000     0.9650470000    -1.1739350000 
 H        1.2531380000     1.5537180000     1.1669630000 
 H        0.6542320000     0.2930680000    -0.0637430000 
 H        3.5730380000     0.8623750000     0.6963150000 
 H        4.5386920000    -1.7396250000    -1.8202340000 
 H        4.7534210000    -1.6928230000    -0.0715950000 
 H        6.8053150000     1.7908320000    -1.2753340000 
*
