! RI PBE def2-SVP def2-SVP/J NBO PAL2
% maxcore 2000
% output
    # printlevel mini
    print[ P_Basis ] 0
    print[ P_SCFInfo ] 1
    print[ P_SCFIterInfo ] 1
    print[ P_OrbEn ] 0
    print[ P_Cartesian ] 0
end
*xyz 0 1
 C        1.1097760000     0.1301480000     0.1511170000 
 C        2.3058960000     0.0963800000     0.0760620000 
 C        3.7545520000     0.0322210000     0.0142280000 
 O        4.2276020000     0.8648470000    -1.0220860000 
 C        5.6311340000     0.8826280000    -1.1023770000 
 C        6.2203770000    -0.3989470000    -1.4847970000 
 C        6.7041060000    -1.4525670000    -1.7949620000 
 H        0.0475990000     0.1638120000     0.2105890000 
 H        4.0699370000    -1.0069740000    -0.1528580000 
 H        4.1759940000     0.3509790000     0.9803150000 
 H        6.0708800000     1.2083500000    -0.1473670000 
 H        5.8790910000     1.6362600000    -1.8531970000 
 H        7.1328550000    -2.3852270000    -2.0776670000 
*
