! RI PBE def2-SVP def2-SVP/J NBO PAL2
% maxcore 2000
% output
    # printlevel mini
    print[ P_Basis ] 0
    print[ P_SCFInfo ] 1
    print[ P_SCFIterInfo ] 1
    print[ P_OrbEn ] 0
    print[ P_Cartesian ] 0
end
*xyz 0 1
 C        0.4603710000     0.7040170000    -1.6287610000 
 C        1.7361360000    -0.0469870000    -1.4637400000 
 C        2.7613920000     0.0681820000    -2.2954700000 
 O        3.9140670000    -0.6293500000    -2.1208520000 
 C        4.9106500000    -0.4460300000    -3.0257920000 
 C        6.0692000000    -1.0830700000    -2.9356290000 
 C        7.1799870000    -0.9030780000    -3.9116260000 
 H        0.2530560000     1.3360620000    -0.7593250000 
 H       -0.3920530000     0.0255910000    -1.7359550000 
 H        0.4867110000     1.3482290000    -2.5105790000 
 H        1.8324030000    -0.7236220000    -0.6194140000 
 H        2.7403700000     0.7252190000    -3.1631830000 
 H        4.6904680000     0.2580900000    -3.8262930000 
 H        6.2147340000    -1.7709630000    -2.1076110000 
 H        6.9129930000    -0.1892360000    -4.6942180000 
 H        7.4428080000    -1.8483590000    -4.3971650000 
 H        8.0878090000    -0.5372660000    -3.4212980000 
*
