! RI PBE def2-SVP def2-SVP/J NBO PAL2
% maxcore 2000
% output
    # printlevel mini
    print[ P_Basis ] 0
    print[ P_SCFInfo ] 1
    print[ P_SCFIterInfo ] 1
    print[ P_OrbEn ] 0
    print[ P_Cartesian ] 0
end
*xyz 0 1
 C        2.4947590000    -6.2861010000     0.0502400000 
 C        3.4887400000    -5.1749750000    -0.0262210000 
 C        3.1323660000    -3.8934280000     0.0251190000 
 O        3.9209420000    -2.8001660000    -0.0340300000 
 C        5.3080670000    -3.0244910000    -0.1890500000 
 C        5.9939740000    -1.7077710000    -0.2888520000 
 C        7.0512200000    -1.3680780000     0.4321480000 
 H        2.5253100000    -6.9152840000    -0.8450790000 
 H        1.4771760000    -5.9019730000     0.1515850000 
 H        2.6898260000    -6.9418480000     0.9048450000 
 H        4.5332200000    -5.4508800000    -0.1257930000 
 H        2.0921570000    -3.5992180000     0.1290560000 
 H        5.4750620000    -3.6126180000    -1.1038630000 
 H        5.6974510000    -3.6043800000     0.6573400000 
 H        5.5860260000    -1.0192820000    -1.0246310000 
 H        7.4664730000    -2.0376190000     1.1791360000 
 H        7.5436330000    -0.4117890000     0.3011590000 
*
