! RI PBE def2-SVP def2-SVP/J NBO PAL2
% maxcore 2000
% output
    # printlevel mini
    print[ P_Basis ] 0
    print[ P_SCFInfo ] 1
    print[ P_SCFIterInfo ] 1
    print[ P_OrbEn ] 0
    print[ P_Cartesian ] 0
end
*xyz 0 1
 C        0.0816720000     0.0384130000     0.3698770000 
 C        1.5143860000    -0.0957240000    -0.0273680000 
 C        2.4809460000    -0.3242320000     0.8583330000 
 O        3.8071930000    -0.4662270000     0.6394840000 
 C        4.2262140000    -0.3574790000    -0.7028840000 
 C        5.6653650000    -0.5289100000    -0.7802520000 
 C        6.8519990000    -0.6659300000    -0.8803470000 
 H       -0.3226680000     1.0156350000     0.0878520000 
 H       -0.0431030000    -0.0747880000     1.4489840000 
 H       -0.5422130000    -0.7162750000    -0.1192100000 
 H        1.7439170000     0.0014340000    -1.0833290000 
 H        2.2691690000    -0.4242240000     1.9181900000 
 H        3.9461140000     0.6251750000    -1.1066770000 
 H        3.7269800000    -1.1199330000    -1.3165230000 
 H        7.9062290000    -0.7890450000    -0.9606220000 
*
