! RI PBE def2-SVP def2-SVP/J NBO PAL2
% maxcore 2000
% output
    # printlevel mini
    print[ P_Basis ] 0
    print[ P_SCFInfo ] 1
    print[ P_SCFIterInfo ] 1
    print[ P_OrbEn ] 0
    print[ P_Cartesian ] 0
end
*xyz 0 1
 C        1.5045880000     0.8466650000     0.7403500000 
 C        2.9027290000     0.7110770000     0.2442980000 
 C        3.6270980000     1.7159880000    -0.2506230000 
 O        3.3213490000    -0.5700740000     0.3702940000 
 C        4.6251240000    -0.8747640000    -0.0528780000 
 C        4.9201330000    -2.3188090000     0.1556230000 
 C        4.0901700000    -3.2146250000     0.6661490000 
 H        1.1561800000     1.8735850000     0.6442470000 
 H        1.4445810000     0.5472850000     1.7901020000 
 H        0.8371860000     0.1901370000     0.1757660000 
 H        3.1889830000     2.7023960000    -0.3040570000 
 H        4.6407140000     1.6015240000    -0.6066710000 
 H        5.3519440000    -0.2616340000     0.5004960000 
 H        4.7435120000    -0.6193970000    -1.1164520000 
 H        5.9192070000    -2.6159670000    -0.1545770000 
 H        3.0908180000    -2.9412960000     0.9817260000 
 H        4.3902830000    -4.2490020000     0.7820860000 
*
