! RI PBE def2-SVP def2-SVP/J NBO PAL2
% maxcore 2000
% output
    # printlevel mini
    print[ P_Basis ] 0
    print[ P_SCFInfo ] 1
    print[ P_SCFIterInfo ] 1
    print[ P_OrbEn ] 0
    print[ P_Cartesian ] 0
end
*xyz 0 1
 C        0.4109760000    -0.0381890000    -0.0273260000 
 C        1.8028190000     0.4903110000    -0.0634090000 
 C        2.1265690000     1.7513590000    -0.3529820000 
 O        2.6811200000    -0.4968000000     0.2404220000 
 C        4.0488860000    -0.1487450000     0.2464530000 
 C        4.8443260000    -1.3141700000     0.5867720000 
 C        5.5316020000    -2.2561390000     0.8647660000 
 H       -0.3066910000     0.7431690000    -0.2713760000 
 H        0.1833580000    -0.4349670000     0.9653540000 
 H        0.3004990000    -0.8600450000    -0.7393330000 
 H        1.3390710000     2.4554690000    -0.5808100000 
 H        3.1419380000     2.1203140000    -0.3747780000 
 H        4.2306580000     0.6519680000     0.9754780000 
 H        4.3456820000     0.2293410000    -0.7407730000 
 H        6.1355880000    -3.0969660000     1.1121530000 
*
