! RI PBE def2-SVP def2-SVP/J NBO PAL2
% maxcore 2000
% output
    # printlevel mini
    print[ P_Basis ] 0
    print[ P_SCFInfo ] 1
    print[ P_SCFIterInfo ] 1
    print[ P_OrbEn ] 0
    print[ P_Cartesian ] 0
end
*xyz 0 1
 C        0.9277770000    -0.0011300000    -0.2207990000 
 C        2.4135900000    -0.0781150000    -0.1937540000 
 C        3.0149900000    -1.3481050000     0.2512170000 
 O        2.3603830000    -2.3047520000     0.5865610000 
 C        3.2092460000     0.9473970000    -0.5530070000 
 C        4.6236160000     0.9481930000    -0.5532000000 
 C        5.8247740000     1.0248660000    -0.5801090000 
 H        0.5182880000    -0.1977530000     0.7733530000 
 H        0.5183720000    -0.7752220000    -0.8749010000 
 H        0.5832070000     0.9749650000    -0.5627940000 
 H        4.1208070000    -1.3752380000     0.2609820000 
 H        2.7470070000     1.8768930000    -0.8786900000 
 H        6.8880320000     1.0759500000    -0.5990190000 
*
