! RI PBE def2-SVP def2-SVP/J NBO PAL2
% maxcore 2000
% output
    # printlevel mini
    print[ P_Basis ] 0
    print[ P_SCFInfo ] 1
    print[ P_SCFIterInfo ] 1
    print[ P_OrbEn ] 0
    print[ P_Cartesian ] 0
end
*xyz 0 1
 C        0.8543210000    -0.0138630000    -0.0887080000 
 C        2.3671500000     0.0267510000     0.0796160000 
 C        2.7512760000     0.8805110000     1.2795230000 
 O        2.8662070000    -1.2991820000     0.2452430000 
 C        3.0166520000     0.5439950000    -1.2088690000 
 C        4.5074950000     0.5846490000    -1.1744790000 
 C        5.2424130000     1.6584650000    -1.4297540000 
 H        0.3784000000    -0.4119050000     0.8127640000 
 H        0.5842580000    -0.6558530000    -0.9296950000 
 H        0.4469100000     0.9844700000    -0.2664340000 
 H        2.2899620000     0.4868900000     2.1908720000 
 H        2.4117070000     1.9117240000     1.1543510000 
 H        3.8338860000     0.8903330000     1.4131430000 
 H        2.5191940000    -1.6480360000     1.0708550000 
 H        2.6182070000     1.5377660000    -1.4333050000 
 H        2.6953230000    -0.1263840000    -2.0153060000 
 H        4.9972720000    -0.3534590000    -0.9260280000 
 H        4.7875680000     2.6125820000    -1.6803680000 
 H        6.3256690000     1.6240450000    -1.4046110000 
*
