! RI PBE def2-SVP def2-SVP/J NBO PAL2
% maxcore 2000
% output
    # printlevel mini
    print[ P_Basis ] 0
    print[ P_SCFInfo ] 1
    print[ P_SCFIterInfo ] 1
    print[ P_OrbEn ] 0
    print[ P_Cartesian ] 0
end
*xyz 0 1
 C        1.2096270000     0.7958390000     0.0082590000 
 C        2.0155350000     0.1170940000     1.0993100000 
 C        2.7020630000     1.1107220000     2.0094420000 
 O        1.1686040000    -0.6700360000     1.9341020000 
 C        0.7853890000    -1.9010510000     1.5278460000 
 C       -0.0968540000    -2.5219850000     2.5574720000 
 C        1.1298890000    -2.5046420000     0.3881770000 
 H        1.8693430000     1.3600720000    -0.6551190000 
 H        0.4921220000     1.4909950000     0.4511030000 
 H        0.6599760000     0.0695080000    -0.5913970000 
 H        2.7701960000    -0.5423100000     0.6539160000 
 H        1.9630420000     1.7470650000     2.5018570000 
 H        3.3766560000     1.7477950000     1.4337230000 
 H        3.2810430000     0.5961850000     2.7779450000 
 H        0.4237890000    -2.5789220000     3.5169880000 
 H       -0.4024010000    -3.5231040000     2.2577180000 
 H       -0.9889930000    -1.9084650000     2.7090410000 
 H        1.7565000000    -2.0508780000    -0.3660940000 
 H        0.7672540000    -3.5043700000     0.1963000000 
*
