! RI PBE def2-SVP def2-SVP/J NBO PAL2
% maxcore 2000
% output
    # printlevel mini
    print[ P_Basis ] 0
    print[ P_SCFInfo ] 1
    print[ P_SCFIterInfo ] 1
    print[ P_OrbEn ] 0
    print[ P_Cartesian ] 0
end
*xyz 0 1
 C        0.8684050000     0.4998320000     1.9769550000 
 C        1.5540280000    -0.2864980000     0.8716850000 
 C        2.7969880000    -0.9909250000     1.3691760000 
 O        0.7094860000    -1.2895030000     0.3331790000 
 C       -0.2897930000    -0.8107010000    -0.5330920000 
 C       -1.0894660000    -1.9640400000    -1.0321150000 
 C       -1.3596740000    -2.1889250000    -2.3087640000 
 H        1.5438340000     1.2592020000     2.3782880000 
 H        0.5813300000    -0.1710460000     2.7906310000 
 H       -0.0275030000     1.0123180000     1.6210090000 
 H        1.8342540000     0.4057400000     0.0611630000 
 H        2.5354950000    -1.7015940000     2.1570870000 
 H        3.5115220000    -0.2721960000     1.7759640000 
 H        3.2761270000    -1.5408930000     0.5577940000 
 H        0.1573230000    -0.2628030000    -1.3764430000 
 H       -0.9576240000    -0.1111380000    -0.0061750000 
 H       -1.4717880000    -2.6327530000    -0.2647130000 
 H       -0.9769280000    -1.5410620000    -3.0915300000 
 H       -1.9752360000    -3.0246970000    -2.6203070000 
*
