! RI PBE def2-SVP def2-SVP/J NBO PAL2
% maxcore 2000
% output
    # printlevel mini
    print[ P_Basis ] 0
    print[ P_SCFInfo ] 1
    print[ P_SCFIterInfo ] 1
    print[ P_OrbEn ] 0
    print[ P_Cartesian ] 0
end
*xyz 0 1
 C        0.8764140000    -0.1499110000    -0.0141850000 
 C        2.3651470000    -0.1056610000    -0.0798190000 
 C        2.9583440000     0.8151210000    -1.1052840000 
 O        2.5719980000     2.1630370000    -0.8975430000 
 C        3.1305110000    -0.8394480000     0.7420630000 
 C        4.5479240000    -0.8528600000     0.7525850000 
 C        5.7503080000    -0.8959160000     0.8065620000 
 H        0.4702860000     0.8581720000     0.1032170000 
 H        0.5226600000    -0.7734900000     0.8075010000 
 H        0.4647150000    -0.5429390000    -0.9504210000 
 H        2.5762620000     0.5525390000    -2.0969130000 
 H        4.0475560000     0.7102030000    -1.1258250000 
 H        2.9667900000     2.4554830000    -0.0713700000 
 H        2.6497480000    -1.4898580000     1.4691490000 
 H        6.8132060000    -0.9309530000     0.8457730000 
*
