! RI PBE def2-SVP def2-SVP/J NBO PAL2
% maxcore 2000
% output
    # printlevel mini
    print[ P_Basis ] 0
    print[ P_SCFInfo ] 1
    print[ P_SCFIterInfo ] 1
    print[ P_OrbEn ] 0
    print[ P_Cartesian ] 0
end
*xyz 0 1
 C        1.2689600000     0.0707580000    -0.2485680000 
 C        2.5026350000    -0.5275270000     0.4153410000 
 C        2.7917780000     0.1845000000     1.7408010000 
 O        3.9962380000    -0.2274310000     2.3338900000 
 C        2.4041140000    -2.0152720000     0.6472230000 
 C        1.1352220000    -2.5500770000     1.2365810000 
 C        3.4379280000    -2.8132890000     0.3814570000 
 H        1.4315530000     1.1282680000    -0.4698090000 
 H        0.3883710000     0.0004840000     0.3953630000 
 H        1.0386830000    -0.4360900000    -1.1882640000 
 H        3.3712670000    -0.3501530000    -0.2280030000 
 H        1.9421860000     0.0451150000     2.4276640000 
 H        2.8843340000     1.2583050000     1.5561510000 
 H        4.0314020000    -1.1897490000     2.2731030000 
 H        0.3030740000    -2.4446880000     0.5341340000 
 H        0.8505760000    -2.0054240000     2.1421840000 
 H        1.2328950000    -3.6062360000     1.4892790000 
 H        4.3476410000    -2.4270390000    -0.0662020000 
 H        3.3988220000    -3.8793350000     0.5800560000 
*
