! RI PBE def2-SVP def2-SVP/J NBO PAL2
% maxcore 2000
% output
    # printlevel mini
    print[ P_Basis ] 0
    print[ P_SCFInfo ] 1
    print[ P_SCFIterInfo ] 1
    print[ P_OrbEn ] 0
    print[ P_Cartesian ] 0
end
*xyz 0 1
 C        1.0264180000    -0.4969330000     0.4305200000 
 C        2.3318340000    -0.4219400000    -0.3449070000 
 C        2.5309610000    -1.6611960000    -1.2080340000 
 O        2.5793240000    -2.8621630000    -0.4640520000 
 C        2.3980390000     0.8502120000    -1.1967000000 
 C        3.7419170000     1.1272970000    -1.7855610000 
 C        3.9984480000     1.3020980000    -3.0745410000 
 H        0.9583910000    -1.4325670000     0.9875230000 
 H        0.1714950000    -0.4522320000    -0.2519130000 
 H        0.9345020000     0.3335370000     1.1350250000 
 H        3.1636540000    -0.3852300000     0.3750220000 
 H        3.4297360000    -1.5461990000    -1.8268050000 
 H        1.6803900000    -1.7693330000    -1.8892440000 
 H        3.3799240000    -2.8539200000     0.0663820000 
 H        2.1134820000     1.6957610000    -0.5578530000 
 H        1.6461360000     0.7980410000    -1.9928790000 
 H        4.5646370000     1.1964210000    -1.0739730000 
 H        3.2122910000     1.2426380000    -3.8212830000 
 H        4.9996310000     1.5150150000    -3.4311130000 
*
