! RI PBE def2-SVP def2-SVP/J NBO PAL2
% maxcore 2000
% output
    # printlevel mini
    print[ P_Basis ] 0
    print[ P_SCFInfo ] 1
    print[ P_SCFIterInfo ] 1
    print[ P_OrbEn ] 0
    print[ P_Cartesian ] 0
end
*xyz 0 1
 C        0.9528730000    -0.3608730000    -0.2625660000 
 C        2.3745360000     0.0657230000     0.0621600000 
 C        2.4606080000     1.5654120000     0.3149480000 
 O        2.0836580000     2.3385290000    -0.8050970000 
 C        2.9110940000    -0.7166810000     1.2684910000 
 C        4.3273670000    -0.5142590000     1.5263930000 
 C        5.5007740000    -0.3489440000     1.7215890000 
 H        0.5503940000     0.2395140000    -1.0795280000 
 H        0.3004580000    -0.2230830000     0.6058130000 
 H        0.9072970000    -1.4136040000    -0.5525010000 
 H        3.0215230000    -0.1652620000    -0.7945370000 
 H        3.4704830000     1.8270360000     0.6540730000 
 H        1.7644920000     1.8400040000     1.1145580000 
 H        2.7618470000     2.2422230000    -1.4782850000 
 H        2.7312310000    -1.7852120000     1.1100650000 
 H        2.3378630000    -0.4411600000     2.1624060000 
 H        6.5396920000    -0.2053650000     1.9020880000 
*
