! RI PBE def2-SVP def2-SVP/J NBO PAL2
% maxcore 2000
% output
    # printlevel mini
    print[ P_Basis ] 0
    print[ P_SCFInfo ] 1
    print[ P_SCFIterInfo ] 1
    print[ P_OrbEn ] 0
    print[ P_Cartesian ] 0
end
*xyz 0 1
 C        1.0934290000    -0.6123300000    -0.1425480000 
 C        2.5225580000    -0.2909030000    -0.5211470000 
 C        3.3740840000    -1.5013390000    -0.8110650000 
 O        2.9379290000    -2.6245560000    -0.7427110000 
 C        4.8246890000    -1.2465690000    -1.1983790000 
 C        5.7456570000    -1.9011390000    -0.1738720000 
 C        5.0789850000    -1.7921110000    -2.5997760000 
 H        0.5279350000     0.3003070000     0.0549540000 
 H        1.0589270000    -1.2400080000     0.7492120000 
 H        0.5936460000    -1.1624730000    -0.9412750000 
 H        3.0318520000     0.2804690000     0.2662870000 
 H        2.5715120000     0.3572140000    -1.4062690000 
 H        4.9982880000    -0.1648800000    -1.1974260000 
 H        5.5554460000    -2.9754980000    -0.1340110000 
 H        5.5928570000    -1.4927730000     0.8284130000 
 H        6.7918620000    -1.7431480000    -0.4460630000 
 H        4.8703270000    -2.8634460000    -2.6265330000 
 H        6.1210300000    -1.6335540000    -2.8871780000 
 H        4.4458050000    -1.3050720000    -3.3458030000 
*
