! RI PBE def2-SVP def2-SVP/J NBO PAL2
% maxcore 2000
% output
    # printlevel mini
    print[ P_Basis ] 0
    print[ P_SCFInfo ] 1
    print[ P_SCFIterInfo ] 1
    print[ P_OrbEn ] 0
    print[ P_Cartesian ] 0
end
*xyz 0 1
 C        2.5652200000    -1.3201560000    -0.7451480000 
 C        2.3149410000     0.0005330000    -0.0254320000 
 C        2.7859480000     1.1925990000    -0.8209430000 
 O        2.0359510000     2.0524630000    -1.2210860000 
 C        4.2100200000     1.2520480000    -1.0885640000 
 C        5.3961210000     1.2970640000    -1.2972830000 
 C        6.8156440000     1.3785100000    -1.5645910000 
 H        2.2254930000    -2.1572480000    -0.1327130000 
 H        3.6276010000    -1.4620660000    -0.9528770000 
 H        2.0260610000    -1.3562940000    -1.6942370000 
 H        2.8481850000     0.0035040000     0.9318280000 
 H        1.2521150000     0.1486950000     0.1734980000 
 H        7.3600460000     0.5621280000    -1.0850040000 
 H        7.2199630000     2.3249860000    -1.1970120000 
 H        7.0038910000     1.3318460000    -2.6402360000 
*
