! RI PBE def2-SVP def2-SVP/J NBO PAL2
% maxcore 2000
% output
    # printlevel mini
    print[ P_Basis ] 0
    print[ P_SCFInfo ] 1
    print[ P_SCFIterInfo ] 1
    print[ P_OrbEn ] 0
    print[ P_Cartesian ] 0
end
*xyz 0 1
 C        1.1807400000     0.3396920000    -0.1308770000 
 C        2.6107610000     0.0810190000     0.2910370000 
 C        3.1539550000    -1.2497950000    -0.1622480000 
 O        2.4771440000    -2.0731040000    -0.7247970000 
 C        4.6341840000    -1.4991130000     0.0937010000 
 C        5.4139190000    -1.1969950000    -1.1479370000 
 C        6.3560410000    -0.2694040000    -1.2429570000 
 H        0.8339810000     1.3043820000     0.2442030000 
 H        0.5163920000    -0.4382930000     0.2475960000 
 H        1.0894860000     0.3404200000    -1.2182330000 
 H        2.7171990000     0.1110490000     1.3836210000 
 H        3.2933330000     0.8561080000    -0.0790680000 
 H        4.7400610000    -2.5569750000     0.3518170000 
 H        4.9967000000    -0.8884420000     0.9241180000 
 H        5.1493200000    -1.7906850000    -2.0196390000 
 H        6.6435870000     0.3399050000    -0.3914950000 
 H        6.8810170000    -0.0923510000    -2.1743440000 
*
