! RI PBE def2-SVP def2-SVP/J NBO PAL2
% maxcore 2000
% output
    # printlevel mini
    print[ P_Basis ] 0
    print[ P_SCFInfo ] 1
    print[ P_SCFIterInfo ] 1
    print[ P_OrbEn ] 0
    print[ P_Cartesian ] 0
end
*xyz 0 1
 C        1.3994960000     0.6746610000     0.3216060000 
 C        2.7175070000     0.2497380000    -0.3020280000 
 C        3.2816840000    -1.0141670000     0.3279560000 
 O        2.3653850000    -2.1019260000     0.2312520000 
 C        4.6209310000    -1.4479960000    -0.1883980000 
 C        5.3466200000    -0.8599190000    -1.1327480000 
 C        6.6646600000    -1.3553350000    -1.6215340000 
 H        0.9982740000     1.5630760000    -0.1708940000 
 H        1.5251910000     0.9107480000     1.3820340000 
 H        0.6589550000    -0.1231290000     0.2466290000 
 H        3.4538710000     1.0535130000    -0.1995500000 
 H        2.5866000000     0.0818330000    -1.3780360000 
 H        3.3712480000    -0.8448790000     1.4090490000 
 H        2.3753320000    -2.4022830000    -0.6828570000 
 H        4.9918050000    -2.3653080000     0.2677890000 
 H        4.9803920000     0.0547250000    -1.5940450000 
 H        6.9585510000    -2.2774620000    -1.1167900000 
 H        7.4499270000    -0.6103950000    -1.4572880000 
 H        6.6382730000    -1.5467940000    -2.6990350000 
*
