! RI PBE def2-SVP def2-SVP/J NBO PAL2
% maxcore 2000
% output
    # printlevel mini
    print[ P_Basis ] 0
    print[ P_SCFInfo ] 1
    print[ P_SCFIterInfo ] 1
    print[ P_OrbEn ] 0
    print[ P_Cartesian ] 0
end
*xyz 0 1
 C        1.0498450000     0.2356000000    -0.0097240000 
 C        2.4920830000    -0.0969790000    -0.3525360000 
 C        3.2815190000    -0.5699460000     0.8570660000 
 O        2.6937840000    -1.7329230000     1.4361990000 
 C        4.7572820000    -0.8120720000     0.6304890000 
 C        5.5464310000    -1.0687660000     1.8762430000 
 C        5.3162750000    -0.8229640000    -0.5757930000 
 H        0.4922740000     0.5350450000    -0.8997380000 
 H        0.9970240000     1.0590040000     0.7080420000 
 H        0.5470510000    -0.6240290000     0.4361290000 
 H        2.9884950000     0.7814900000    -0.7761920000 
 H        2.5205970000    -0.8745020000    -1.1255180000 
 H        3.1867050000     0.1899460000     1.6438830000 
 H        2.8311910000    -2.4577060000     0.8178010000 
 H        5.5500530000    -0.1800130000     2.5165140000 
 H        6.5804180000    -1.3317340000     1.6500860000 
 H        5.0947530000    -1.8734140000     2.4614640000 
 H        4.7517560000    -0.6271360000    -1.4791130000 
 H        6.3751560000    -1.0248110000    -0.6979030000 
*
