! RI PBE def2-SVP def2-SVP/J NBO PAL2
% maxcore 2000
% output
    # printlevel mini
    print[ P_Basis ] 0
    print[ P_SCFInfo ] 1
    print[ P_SCFIterInfo ] 1
    print[ P_OrbEn ] 0
    print[ P_Cartesian ] 0
end
*xyz 0 1
 C        2.8635950000     0.5612600000     1.3455190000 
 C        2.5025240000     0.0990040000    -0.0542870000 
 C        3.0574780000    -1.2816000000    -0.4037770000 
 O        2.5400680000    -1.7497050000    -1.6386760000 
 C        4.5201590000    -1.3026200000    -0.3925540000 
 C        5.7232370000    -1.2975300000    -0.4149470000 
 C        7.1736150000    -1.3107550000    -0.4357770000 
 H        2.4321110000     1.5418270000     1.5562860000 
 H        3.9461140000     0.6348680000     1.4702810000 
 H        2.4873620000    -0.1349580000     2.1005550000 
 H        2.8683030000     0.8160680000    -0.7974320000 
 H        1.4168950000     0.0396240000    -0.1726920000 
 H        2.6933840000    -1.9982850000     0.3417100000 
 H        3.0114970000    -1.2960880000    -2.3434440000 
 H        7.5448830000    -1.8580590000    -1.3058250000 
 H        7.5713760000    -1.7968050000     0.4586080000 
 H        7.5791400000    -0.2968950000    -0.4773380000 
*
