! RI PBE def2-SVP def2-SVP/J NBO PAL2
% maxcore 2000
% output
    # printlevel mini
    print[ P_Basis ] 0
    print[ P_SCFInfo ] 1
    print[ P_SCFIterInfo ] 1
    print[ P_OrbEn ] 0
    print[ P_Cartesian ] 0
end
*xyz 0 1
 C        1.1474490000     0.1301900000     0.5674230000 
 C        2.5678210000     0.5522900000     0.2357980000 
 C        3.1060400000    -0.1327990000    -1.0146140000 
 O        2.3244720000     0.1688740000    -2.1530370000 
 C        4.5878620000     0.1669950000    -1.2851140000 
 C        4.8392390000     1.6104500000    -1.5732700000 
 C        5.0410230000     2.1101500000    -2.7873340000 
 H        0.7681110000     0.6614330000     1.4431100000 
 H        1.0961520000    -0.9415850000     0.7798730000 
 H        0.4802700000     0.3331390000    -0.2720640000 
 H        3.2344860000     0.3253270000     1.0759940000 
 H        2.6068050000     1.6382500000     0.0917890000 
 H        3.0071340000    -1.2163750000    -0.8828740000 
 H        2.5776430000     1.0516450000    -2.4486760000 
 H        4.9005680000    -0.4380410000    -2.1404220000 
 H        5.1748910000    -0.1533240000    -0.4178900000 
 H        4.8206300000     2.2930510000    -0.7261990000 
 H        5.0808590000     1.4688060000    -3.6630110000 
 H        5.1935560000     3.1715320000    -2.9473610000 
*
