! RI PBE def2-SVP def2-SVP/J NBO PAL2
% maxcore 2000
% output
    # printlevel mini
    print[ P_Basis ] 0
    print[ P_SCFInfo ] 1
    print[ P_SCFIterInfo ] 1
    print[ P_OrbEn ] 0
    print[ P_Cartesian ] 0
end
*xyz 0 1
 C        1.0038140000     0.1364290000     0.2387120000 
 C        2.5137210000     0.1102770000     0.0816350000 
 C        2.9603120000    -0.5196750000    -1.2295850000 
 O        2.4344620000     0.1531660000    -2.3521420000 
 C        4.4891640000    -0.6328660000    -1.3366070000 
 C        5.1300250000     0.6690340000    -1.4218660000 
 C        5.6138230000     1.7647130000    -1.5166810000 
 H        0.7124180000     0.6271890000     1.1697650000 
 H        0.5912190000    -0.8764630000     0.2531780000 
 H        0.5368090000     0.6710710000    -0.5900280000 
 H        2.9689280000    -0.4466400000     0.9086240000 
 H        2.9199900000     1.1270590000     0.1357100000 
 H        2.5542580000    -1.5351630000    -1.2915950000 
 H        2.8725750000     1.0106980000    -2.4064940000 
 H        4.7352420000    -1.2089240000    -2.2337180000 
 H        4.8816610000    -1.1845970000    -0.4763240000 
 H        6.0646980000     2.7259810000    -1.5926720000 
*
