! RI PBE def2-SVP def2-SVP/J NBO PAL2
% maxcore 2000
% output
    # printlevel mini
    print[ P_Basis ] 0
    print[ P_SCFInfo ] 1
    print[ P_SCFIterInfo ] 1
    print[ P_OrbEn ] 0
    print[ P_Cartesian ] 0
end
*xyz 0 1
 C        1.8114960000     0.8312340000    -1.1388940000 
 C        2.5376920000    -0.0306080000    -0.1104950000 
 C        3.1045500000     0.7652040000     1.0251450000 
 O        2.2197750000     1.4796700000     1.7912110000 
 C        1.0707900000     0.7990430000     2.2408600000 
 C        4.4106990000     0.8888420000     1.2611420000 
 C        5.0240930000     1.6935930000     2.3541180000 
 H        1.3900290000     0.2150850000    -1.9364280000 
 H        2.4972280000     1.5516670000    -1.5900850000 
 H        0.9962170000     1.3971820000    -0.6834110000 
 H        3.3604850000    -0.5683790000    -0.5860590000 
 H        1.8549150000    -0.7992110000     0.2703850000 
 H        0.5540350000     1.4802850000     2.9165780000 
 H        1.3344620000    -0.1128420000     2.7889100000 
 H        0.3914980000     0.5381760000     1.4220430000 
 H        5.0792150000     0.3738100000     0.5784730000 
 H        4.2618530000     2.1135300000     3.0097870000 
 H        5.6171520000     2.5217930000     1.9516830000 
 H        5.7051160000     1.0845250000     2.9570380000 
*
