! RI PBE def2-SVP def2-SVP/J NBO PAL2
% maxcore 2000
% output
    # printlevel mini
    print[ P_Basis ] 0
    print[ P_SCFInfo ] 1
    print[ P_SCFIterInfo ] 1
    print[ P_OrbEn ] 0
    print[ P_Cartesian ] 0
end
*xyz 0 1
 C        1.8664400000     0.0246620000     1.6066620000 
 C        3.0226380000     0.9207740000     1.2007950000 
 C        4.3097820000     0.1627610000     0.9105690000 
 O        5.2223340000     1.1072500000     0.3818540000 
 C        6.3651250000     0.5312020000    -0.1934330000 
 C        4.8677070000    -0.4935400000     2.1372010000 
 C        5.0262550000    -1.7992430000     2.2966220000 
 H        0.9663860000     0.6139910000     1.7930310000 
 H        2.0927980000    -0.5381860000     2.5149130000 
 H        1.6310650000    -0.6985630000     0.8206360000 
 H        3.2279400000     1.6603620000     1.9818670000 
 H        2.7701360000     1.4842850000     0.2979400000 
 H        4.1083990000    -0.6135060000     0.1529720000 
 H        6.9731070000     1.3471040000    -0.5852200000 
 H        6.0990640000    -0.1418550000    -1.0208670000 
 H        6.9558750000    -0.0365600000     0.5353960000 
 H        5.1498930000     0.1921880000     2.9350460000 
 H        4.7577600000    -2.5002160000     1.5116170000 
 H        5.4225880000    -2.2189090000     3.2143790000 
*
