! RI PBE def2-SVP def2-SVP/J NBO PAL2
% maxcore 2000
% output
    # printlevel mini
    print[ P_Basis ] 0
    print[ P_SCFInfo ] 1
    print[ P_SCFIterInfo ] 1
    print[ P_OrbEn ] 0
    print[ P_Cartesian ] 0
end
*xyz 0 1
 C        2.8936120000    -1.9749460000     1.2495270000 
 C        2.4563420000    -0.7976910000     0.3981220000 
 C        2.9179810000    -0.8928740000    -1.0506830000 
 O        2.3400040000     0.1852650000    -1.7491970000 
 C        2.5249350000     0.1248720000    -3.1405780000 
 C        4.3813080000    -0.8966320000    -1.1607710000 
 C        5.5791320000    -0.8941920000    -1.2453240000 
 H        2.5253020000    -1.8677600000     2.2715190000 
 H        3.9820740000    -2.0529270000     1.2914260000 
 H        2.5052680000    -2.9181860000     0.8551220000 
 H        2.8337380000     0.1412970000     0.8116650000 
 H        1.3658080000    -0.7228480000     0.3739030000 
 H        2.5507800000    -1.8421440000    -1.4776600000 
 H        2.0046680000     0.9816350000    -3.5683330000 
 H        2.0990650000    -0.7973140000    -3.5598140000 
 H        3.5858570000     0.1763430000    -3.4115780000 
 H        6.6410450000    -0.8893270000    -1.3204350000 
*
