! RI PBE def2-SVP def2-SVP/J NBO PAL2
% maxcore 2000
% output
    # printlevel mini
    print[ P_Basis ] 0
    print[ P_SCFInfo ] 1
    print[ P_SCFIterInfo ] 1
    print[ P_OrbEn ] 0
    print[ P_Cartesian ] 0
end
*xyz 0 1
 C        0.8080830000    -0.3230950000     0.1318760000 
 C        2.2794390000    -0.0271750000    -0.1023540000 
 C        2.9153730000     0.6425480000     1.0920920000 
 O        4.2750430000     0.8856550000     0.8029840000 
 C        5.0102950000     1.4838060000     1.7625690000 
 C        4.6243150000     1.8860610000     2.9715460000 
 C        5.5589010000     2.5391120000     3.9347920000 
 H        0.3612180000    -0.8067670000    -0.7386200000 
 H        0.2428300000     0.5924880000     0.3270030000 
 H        0.6660110000    -0.9883400000     0.9881130000 
 H        2.4030970000     0.6204910000    -0.9754300000 
 H        2.8238590000    -0.9513340000    -0.3181390000 
 H        2.8354220000     0.0050160000     1.9839540000 
 H        2.4105750000     1.5919330000     1.3203520000 
 H        6.0338330000     1.6160230000     1.4234620000 
 H        3.5978820000     1.7458860000     3.2935080000 
 H        6.5626020000     2.6316760000     3.5133930000 
 H        5.6407800000     1.9693200000     4.8661150000 
 H        5.2192400000     3.5434980000     4.2078640000 
*
