! RI PBE def2-SVP def2-SVP/J NBO PAL2
% maxcore 2000
% output
    # printlevel mini
    print[ P_Basis ] 0
    print[ P_SCFInfo ] 1
    print[ P_SCFIterInfo ] 1
    print[ P_OrbEn ] 0
    print[ P_Cartesian ] 0
end
*xyz 0 1
 C        0.2193910000     0.2226780000    -0.6806290000 
 C        1.3122980000     0.1659780000     0.3727970000 
 C        2.6462880000    -0.2173900000    -0.2223950000 
 O        3.6072000000    -0.2492720000     0.8112800000 
 C        4.8782620000    -0.5745820000     0.4840720000 
 C        5.7442610000    -0.5563680000     1.6969380000 
 C        5.3101350000    -0.8715040000    -0.7429710000 
 H       -0.7388150000     0.5005720000    -0.2378770000 
 H        0.0878860000    -0.7455400000    -1.1716400000 
 H        0.4505210000     0.9581780000    -1.4561630000 
 H        1.0529550000    -0.5578410000     1.1512420000 
 H        1.4135610000     1.1362210000     0.8683000000 
 H        2.9521150000     0.5071250000    -0.9894870000 
 H        2.5880760000    -1.2031500000    -0.7038180000 
 H        5.7305810000     0.4353040000     2.1570160000 
 H        6.7713210000    -0.8169460000     1.4464400000 
 H        5.3686930000    -1.2639690000     2.4409260000 
 H        4.6687400000    -0.8801400000    -1.6122980000 
 H        6.3523330000    -1.1176540000    -0.8880410000 
*
