! RI PBE def2-SVP def2-SVP/J NBO PAL2
% maxcore 2000
% output
    # printlevel mini
    print[ P_Basis ] 0
    print[ P_SCFInfo ] 1
    print[ P_SCFIterInfo ] 1
    print[ P_OrbEn ] 0
    print[ P_Cartesian ] 0
end
*xyz 0 1
 C        0.8298760000     0.0021670000     0.0926290000 
 C        2.3480760000     0.0350100000     0.0513170000 
 C        2.8771760000     1.3970720000    -0.3292510000 
 O        4.2840400000     1.3562290000    -0.3477900000 
 C        4.8402980000     2.5967080000    -0.6955600000 
 C        6.2913580000     2.5184480000    -0.7046070000 
 C        7.4898280000     2.4830980000    -0.7201000000 
 H        0.4663950000    -0.9893590000     0.3686020000 
 H        0.3981770000     0.2526320000    -0.8803990000 
 H        0.4345720000     0.7134750000     0.8231360000 
 H        2.7258260000    -0.6985730000    -0.6669640000 
 H        2.7619610000    -0.2394910000     1.0260560000 
 H        2.5307750000     2.1569200000     0.3904540000 
 H        2.4947690000     1.6930080000    -1.3199670000 
 H        4.5248100000     3.3759350000     0.0164870000 
 H        4.4891980000     2.9133060000    -1.6906670000 
 H        8.5533520000     2.4440140000    -0.7316970000 
*
