! RI PBE def2-SVP def2-SVP/J NBO PAL2
% maxcore 2000
% output
    # printlevel mini
    print[ P_Basis ] 0
    print[ P_SCFInfo ] 1
    print[ P_SCFIterInfo ] 1
    print[ P_OrbEn ] 0
    print[ P_Cartesian ] 0
end
*xyz 0 1
 C       -0.3079270000     1.0363520000     1.1093600000 
 C        0.8062620000     0.7641890000     0.1131400000 
 C        1.9522680000     0.0028880000     0.7369420000 
 O        2.9421500000    -0.2320220000    -0.2339900000 
 C        4.0591560000    -0.9274300000     0.2635380000 
 C        5.0772490000    -1.0019770000    -0.8464100000 
 O        5.4922960000     0.2768870000    -1.2612050000 
 H       -1.1269560000     1.5867170000     0.6427780000 
 H        0.0493170000     1.6303460000     1.9551030000 
 H       -0.7205460000     0.1060180000     1.5091160000 
 H        1.1897240000     1.7052550000    -0.2930030000 
 H        0.4252640000     0.1882550000    -0.7355910000 
 H        1.5941920000    -0.9554320000     1.1458810000 
 H        2.3783480000     0.5734770000     1.5775270000 
 H        3.7751120000    -1.9396520000     0.5903530000 
 H        4.4838640000    -0.3936380000     1.1268380000 
 H        4.6533300000    -1.5719800000    -1.6852910000 
 H        5.9653440000    -1.5317860000    -0.4936350000 
 H        4.6899730000     0.7818510000    -1.4283630000 
*
