! RI PBE def2-SVP def2-SVP/J NBO PAL2
% maxcore 2000
% output
    # printlevel mini
    print[ P_Basis ] 0
    print[ P_SCFInfo ] 1
    print[ P_SCFIterInfo ] 1
    print[ P_OrbEn ] 0
    print[ P_Cartesian ] 0
end
*xyz 0 1
 C       -0.2258960000     1.3415360000     0.4714450000 
 C        0.6146160000     0.3186200000     0.4685450000 
 C        2.0197040000     0.3956030000    -0.0145070000 
 O        2.8758900000    -0.1540510000     0.9683240000 
 C        4.2153120000    -0.1700250000     0.5717410000 
 C        4.8790200000     1.1847130000     0.6870220000 
 O        5.9232590000     1.4633800000     0.1695630000 
 H       -1.2522210000     1.2312640000     0.8009400000 
 H        0.0805820000     2.3284150000     0.1384860000 
 H        0.2929010000    -0.6600550000     0.8156480000 
 H        2.2891610000     1.4377560000    -0.2393720000 
 H        2.1301980000    -0.1797020000    -0.9483770000 
 H        4.3512440000    -0.5537820000    -0.4491390000 
 H        4.7481590000    -0.8452620000     1.2511820000 
 H        4.3298620000     1.9081010000     1.3305780000 
*
