! RI PBE def2-SVP def2-SVP/J NBO PAL2
% maxcore 2000
% output
    # printlevel mini
    print[ P_Basis ] 0
    print[ P_SCFInfo ] 1
    print[ P_SCFIterInfo ] 1
    print[ P_OrbEn ] 0
    print[ P_Cartesian ] 0
end
*xyz 0 1
 C        0.6701250000    -1.5870250000     3.8218570000 
 C        2.1048300000    -1.6150320000     3.4116130000 
 C        2.6087080000    -0.7688100000     2.5175920000 
 O        3.8791860000    -0.6922870000     2.0631040000 
 C        4.8199510000    -1.5963400000     2.6067590000 
 C        6.1549890000    -1.2695150000     1.9880610000 
 O        6.5918700000     0.0259370000     2.3176900000 
 H        0.1740840000    -2.5397030000     3.6109420000 
 H        0.1215030000    -0.8025540000     3.2958280000 
 H        0.5639720000    -1.4054370000     4.8960430000 
 H        2.7392490000    -2.3630820000     3.8750680000 
 H        1.9922280000    -0.0135190000     2.0395320000 
 H        4.5289810000    -2.6300730000     2.3777110000 
 H        4.8634490000    -1.4745910000     3.6962640000 
 H        6.0908300000    -1.4034170000     0.8991850000 
 H        6.9057890000    -1.9663240000     2.3680770000 
 H        5.8879460000     0.6327720000     2.0690740000 
*
