! RI PBE def2-SVP def2-SVP/J NBO PAL2
% maxcore 2000
% output
    # printlevel mini
    print[ P_Basis ] 0
    print[ P_SCFInfo ] 1
    print[ P_SCFIterInfo ] 1
    print[ P_OrbEn ] 0
    print[ P_Cartesian ] 0
end
*xyz 0 1
 C        0.2047880000     0.2950550000    -0.5717070000 
 C        1.6592120000     0.5971220000    -0.5969050000 
 C        2.3185720000     1.2413180000    -1.5445170000 
 O        2.3575940000     0.2380920000     0.5580280000 
 C        2.5345300000    -1.0773010000     0.8210110000 
 C        3.2443720000    -1.2566300000     2.1269230000 
 O        2.1728380000    -1.9571160000     0.0936030000 
 H       -0.2801100000     0.6958280000    -1.4611310000 
 H       -0.2587390000     0.7425740000     0.3124670000 
 H        0.0371500000    -0.7828470000    -0.5316920000 
 H        1.7995600000     1.5974950000    -2.4239310000 
 H        3.3813270000     1.4260440000    -1.4592190000 
 H        2.6481520000    -0.8270610000     2.9343260000 
 H        4.1974010000    -0.7250770000     2.1088540000 
 H        3.4086530000    -2.3157850000     2.3074890000 
*
