! RI PBE def2-SVP def2-SVP/J NBO PAL2
% maxcore 2000
% output
    # printlevel mini
    print[ P_Basis ] 0
    print[ P_SCFInfo ] 1
    print[ P_SCFIterInfo ] 1
    print[ P_OrbEn ] 0
    print[ P_Cartesian ] 0
end
*xyz 0 1
 C        0.4023460000     0.3168450000     0.2730240000 
 C        1.7030300000     0.4922980000     0.9755670000 
 C        1.8432130000     0.9834870000     2.2065320000 
 O        2.7244570000     0.0801360000     0.1821270000 
 C        4.0255580000     0.1772380000     0.6932190000 
 C        4.9812710000    -0.3327590000    -0.3531180000 
 O        6.1671290000    -0.3676860000    -0.1896700000 
 H       -0.4243920000     0.6441790000     0.9009520000 
 H        0.2533250000    -0.7330180000     0.0074390000 
 H        0.3926450000     0.8922800000    -0.6563520000 
 H        0.9625450000     1.2837100000     2.7559720000 
 H        2.7993540000     1.1014520000     2.6959520000 
 H        4.1461080000    -0.4199030000     1.6071730000 
 H        4.2867970000     1.2155020000     0.9384930000 
 H        4.5015160000    -0.6763510000    -1.2936000000 
*
