! RI PBE def2-SVP def2-SVP/J NBO PAL2
% maxcore 2000
% output
    # printlevel mini
    print[ P_Basis ] 0
    print[ P_SCFInfo ] 1
    print[ P_SCFIterInfo ] 1
    print[ P_OrbEn ] 0
    print[ P_Cartesian ] 0
end
*xyz 0 1
 C        1.0132010000     0.0844650000    -0.1114610000 
 C        2.4882170000     0.1257050000     0.0839640000 
 C        2.9613520000     0.9617280000     1.2254180000 
 O        2.1786130000     1.5538670000     1.9267560000 
 C        3.3338060000    -0.5478440000    -0.7180800000 
 C        4.8072690000    -0.6152970000    -0.6652900000 
 O        5.5370150000    -0.0673580000     0.1230320000 
 H        0.6246880000     1.0948340000    -0.2632390000 
 H        0.5235930000    -0.2886740000     0.7918010000 
 H        0.7371500000    -0.5417400000    -0.9590630000 
 H        4.0469100000     1.0074420000     1.3894150000 
 H        2.9040030000    -1.1339210000    -1.5276780000 
 H        5.2391820000    -1.2551170000    -1.4627740000 
*
