! RI PBE def2-SVP def2-SVP/J NBO PAL2
% maxcore 2000
% output
    # printlevel mini
    print[ P_Basis ] 0
    print[ P_SCFInfo ] 1
    print[ P_SCFIterInfo ] 1
    print[ P_OrbEn ] 0
    print[ P_Cartesian ] 0
end
*xyz 0 1
 C        0.6880140000     0.4942660000    -0.0202720000 
 C        2.1032470000    -0.0446050000     0.0585290000 
 C        2.7874550000     0.3894810000     1.3405830000 
 O        3.9706400000     0.5358270000     1.4659960000 
 C        2.1382860000    -1.5794990000     0.0377300000 
 C        3.4405120000    -2.1988490000    -0.3721810000 
 O        1.1681550000    -2.2231580000     0.3417720000 
 H        0.6821900000     1.5851380000     0.0315540000 
 H        0.0823390000     0.0997830000     0.7967530000 
 H        0.2113990000     0.1922550000    -0.9535830000 
 H        2.7351200000     0.3123080000    -0.7603970000 
 H        2.0956990000     0.5525710000     2.1949380000 
 H        4.2792540000    -1.6898430000     0.1088270000 
 H        3.5672960000    -2.0681610000    -1.4517490000 
 H        3.4424950000    -3.2618030000    -0.1379000000 
*
