! RI PBE def2-SVP def2-SVP/J NBO PAL2
% maxcore 2000
% output
    # printlevel mini
    print[ P_Basis ] 0
    print[ P_SCFInfo ] 1
    print[ P_SCFIterInfo ] 1
    print[ P_OrbEn ] 0
    print[ P_Cartesian ] 0
end
*xyz 0 1
 C        1.0335580000    -0.4589590000     0.1881950000 
 C        2.4948150000    -0.0938040000     0.4066420000 
 C        2.7528230000     0.1978910000     1.8784180000 
 O        3.3200920000    -1.1923900000    -0.0118440000 
 C        2.8776940000     1.0831150000    -0.4924850000 
 C        4.3501790000     1.4634680000    -0.5048080000 
 O        5.1653130000     0.5199990000    -1.1559740000 
 H        0.7527130000    -1.3163710000     0.8077430000 
 H        0.8614520000    -0.7191990000    -0.8578050000 
 H        0.3760780000     0.3725590000     0.4531160000 
 H        2.4652080000    -0.6622450000     2.4912620000 
 H        2.1661220000     1.0546850000     2.2177160000 
 H        3.8077000000     0.4058570000     2.0618750000 
 H        3.1560700000    -1.9382650000     0.5719590000 
 H        2.2879190000     1.9501220000    -0.1767800000 
 H        2.5779360000     0.8460660000    -1.5186880000 
 H        4.7050440000     1.6502790000     0.5201420000 
 H        4.4662730000     2.4042830000    -1.0502870000 
 H        4.8826910000    -0.3473980000    -0.8403850000 
*
