! RI PBE def2-SVP def2-SVP/J NBO PAL2
% maxcore 2000
% output
    # printlevel mini
    print[ P_Basis ] 0
    print[ P_SCFInfo ] 1
    print[ P_SCFIterInfo ] 1
    print[ P_OrbEn ] 0
    print[ P_Cartesian ] 0
end
*xyz 0 1
 C        0.6130860000     0.4750890000     0.5110070000 
 C        1.9573740000    -0.2296520000     0.5545590000 
 C        2.2483400000    -0.8166020000     1.9170820000 
 O        2.0233460000    -1.3056550000    -0.3699310000 
 C        2.0748520000    -0.9310650000    -1.7122340000 
 C        2.4183330000    -2.1439840000    -2.5387510000 
 O        2.4709840000    -2.1327320000    -3.7358350000 
 H        0.5846160000     1.2763840000     1.2526190000 
 H       -0.1900430000    -0.2312230000     0.7359910000 
 H        0.4157800000     0.9243940000    -0.4644100000 
 H        2.7486770000     0.4922710000     0.2949780000 
 H        1.4818000000    -1.5479000000     2.1844050000 
 H        2.2575810000    -0.0331190000     2.6772760000 
 H        3.2174930000    -1.3177220000     1.9205590000 
 H        2.8484730000    -0.1673250000    -1.8948440000 
 H        1.1246700000    -0.5236370000    -2.0853720000 
 H        2.6270390000    -3.0590130000    -1.9448890000 
*
