! RI PBE def2-SVP def2-SVP/J NBO PAL2
% maxcore 2000
% output
    # printlevel mini
    print[ P_Basis ] 0
    print[ P_SCFInfo ] 1
    print[ P_SCFIterInfo ] 1
    print[ P_OrbEn ] 0
    print[ P_Cartesian ] 0
end
*xyz 0 1
 C        1.2414490000    -0.6690510000    -0.4450680000 
 C        2.4847690000     0.1738120000    -0.1862150000 
 C        2.4478200000     1.4079750000    -1.0848370000 
 O        3.6611350000     2.1071980000    -1.1770130000 
 C        2.5888330000     0.4748880000     1.3118130000 
 C        3.8794580000     1.0718480000     1.8321350000 
 O        3.9321670000     2.4648980000     1.5327270000 
 H        1.1682070000    -0.9550100000    -1.4970300000 
 H        0.3325370000    -0.1152740000    -0.1881000000 
 H        1.2481440000    -1.5845340000     0.1515860000 
 H        3.3691530000    -0.4064800000    -0.4813010000 
 H        1.6291920000     2.0673920000    -0.7524100000 
 H        2.2035830000     1.0872210000    -2.1019430000 
 H        3.8511070000     2.4650650000    -0.2962280000 
 H        2.4474330000    -0.4688900000     1.8507560000 
 H        1.7602460000     1.1259310000     1.6178100000 
 H        4.7408610000     0.5539310000     1.3907700000 
 H        3.9219730000     0.9371460000     2.9193880000 
 H        4.7444530000     2.8281350000     1.8941700000 
*
