! RI PBE def2-SVP def2-SVP/J NBO PAL2
% maxcore 2000
% output
    # printlevel mini
    print[ P_Basis ] 0
    print[ P_SCFInfo ] 1
    print[ P_SCFIterInfo ] 1
    print[ P_OrbEn ] 0
    print[ P_Cartesian ] 0
end
*xyz 0 1
 C        1.1900380000    -0.1206360000    -0.0326870000 
 C        2.6634860000     0.0838660000     0.0690120000 
 C        3.4891150000    -0.8385680000    -0.7781820000 
 O        3.0187360000    -2.1597970000    -0.6016370000 
 C        3.1776770000     1.0615800000     0.8312920000 
 C        4.5916820000     1.3493690000     1.0487980000 
 O        4.9790650000     2.2832760000     1.7112880000 
 H        0.8662450000    -0.0687650000    -1.0776210000 
 H        0.6431850000     0.6233970000     0.5456330000 
 H        0.9240230000    -1.1197100000     0.3205560000 
 H        4.5529200000    -0.7643590000    -0.5384780000 
 H        3.3628230000    -0.5184160000    -1.8248510000 
 H        3.4680800000    -2.7291590000    -1.2299620000 
 H        2.5053060000     1.7293220000     1.3631650000 
 H        5.3271200000     0.6615220000     0.5867740000 
*
