! RI PBE def2-SVP def2-SVP/J NBO PAL2
% maxcore 2000
% output
    # printlevel mini
    print[ P_Basis ] 0
    print[ P_SCFInfo ] 1
    print[ P_SCFIterInfo ] 1
    print[ P_OrbEn ] 0
    print[ P_Cartesian ] 0
end
*xyz 0 1
 C        1.0457210000     0.2964430000     0.0326860000 
 C        2.5385290000     0.0671690000     0.1366180000 
 C        2.9273860000    -1.3701310000     0.3748780000 
 O        2.0983870000    -2.2271270000     0.5878360000 
 C        4.4020120000    -1.6928050000     0.3290390000 
 C        4.7308210000    -3.0732410000     0.8710450000 
 O        4.1562150000    -4.1010520000     0.1052310000 
 H        0.8278060000     1.3552200000    -0.1179460000 
 H        0.5362470000    -0.0359890000     0.9378930000 
 H        0.6203120000    -0.2634980000    -0.8017400000 
 H        2.9731890000     0.6528230000     0.9571250000 
 H        3.0659040000     0.4114520000    -0.7612290000 
 H        4.9576180000    -0.9148060000     0.8651530000 
 H        4.7181830000    -1.6231460000    -0.7197130000 
 H        4.4134030000    -3.1367100000     1.9214180000 
 H        5.8121770000    -3.2272740000     0.8473760000 
 H        3.2022000000    -3.9721080000     0.1724310000 
*
