! RI PBE def2-SVP def2-SVP/J NBO PAL2
% maxcore 2000
% output
    # printlevel mini
    print[ P_Basis ] 0
    print[ P_SCFInfo ] 1
    print[ P_SCFIterInfo ] 1
    print[ P_OrbEn ] 0
    print[ P_Cartesian ] 0
end
*xyz 0 1
 C        1.8660710000     1.0869610000     1.2709860000 
 C        3.0442170000     0.4967060000     0.5223460000 
 C        3.0734550000     0.8575060000    -0.9372860000 
 O        2.3770520000     1.7287830000    -1.4059670000 
 C        4.0057450000     0.0880560000    -1.8607780000 
 C        5.4530710000     0.1179680000    -1.3918700000 
 O        3.9050380000     0.5903210000    -3.1581320000 
 H        1.9128270000     0.8247320000     2.3292640000 
 H        0.9209910000     0.7184870000     0.8681840000 
 H        1.8548530000     2.1736290000     1.1831450000 
 H        3.0770880000    -0.5948670000     0.6105260000 
 H        3.9915380000     0.8457170000     0.9526300000 
 H        3.6531960000    -0.9580580000    -1.8366960000 
 H        5.5775910000    -0.3760660000    -0.4261480000 
 H        6.0717630000    -0.4010690000    -2.1248560000 
 H        5.8083230000     1.1482000000    -1.3166260000 
 H        3.2128020000     1.2697960000    -3.1178120000 
*
