! RI PBE def2-SVP def2-SVP/J NBO PAL2
% maxcore 2000
% output
    # printlevel mini
    print[ P_Basis ] 0
    print[ P_SCFInfo ] 1
    print[ P_SCFIterInfo ] 1
    print[ P_OrbEn ] 0
    print[ P_Cartesian ] 0
end
*xyz 0 1
 C        1.3409140000     0.9635290000     0.5588310000 
 C        2.7796120000     0.9668520000     0.0716480000 
 C        3.2173290000    -0.3673920000    -0.5073280000 
 O        2.4448520000    -0.7275180000    -1.6397730000 
 C        4.7051910000    -0.3958380000    -0.8559690000 
 C        5.1401910000    -1.7452500000    -1.3870650000 
 O        5.4121340000    -0.0508940000     0.3232940000 
 H        1.0480240000     1.9482980000     0.9294070000 
 H        1.2087320000     0.2490170000     1.3758890000 
 H        0.6500560000     0.6820520000    -0.2384280000 
 H        3.4592330000     1.2296750000     0.8851000000 
 H        2.9160860000     1.7373270000    -0.7011410000 
 H        3.0343700000    -1.1584800000     0.2297080000 
 H        2.4328650000     0.0244920000    -2.2398510000 
 H        4.8786110000     0.3719500000    -1.6307830000 
 H        4.9996890000    -2.5128240000    -0.6213030000 
 H        4.5558130000    -2.0211010000    -2.2652890000 
 H        6.1971840000    -1.7293860000    -1.6707420000 
 H        6.3430130000    -0.2378990000     0.1812250000 
*
