! RI PBE def2-SVP def2-SVP/J NBO PAL2
% maxcore 2000
% output
    # printlevel mini
    print[ P_Basis ] 0
    print[ P_SCFInfo ] 1
    print[ P_SCFIterInfo ] 1
    print[ P_OrbEn ] 0
    print[ P_Cartesian ] 0
end
*xyz 0 1
 C        1.1020740000    -0.3083750000     0.1759570000 
 C        2.6041050000    -0.0883040000     0.1441250000 
 C        3.0704620000     0.7063190000    -1.0662690000 
 O        2.4679830000     1.9872900000    -1.1260000000 
 C        4.5945940000     0.8157800000    -1.1174840000 
 C        5.0912590000     1.4597880000    -2.3800900000 
 O        6.0074670000     1.0383410000    -3.0334210000 
 H        0.8026460000    -0.8479970000     1.0766560000 
 H        0.7745180000    -0.8935610000    -0.6874250000 
 H        0.5641840000     0.6409000000     0.1530490000 
 H        3.1262710000    -1.0506220000     0.1515910000 
 H        2.9301060000     0.4400150000     1.0508570000 
 H        2.7205250000     0.1995260000    -1.9732350000 
 H        2.6515650000     2.4438580000    -0.2987200000 
 H        5.0727090000    -0.1608870000    -1.0147280000 
 H        4.9253220000     1.4381550000    -0.2732930000 
 H        4.5457190000     2.3744950000    -2.6896590000 
*
