! RI PBE def2-SVP def2-SVP/J NBO PAL2
% maxcore 2000
% output
    # printlevel mini
    print[ P_Basis ] 0
    print[ P_SCFInfo ] 1
    print[ P_SCFIterInfo ] 1
    print[ P_OrbEn ] 0
    print[ P_Cartesian ] 0
end
*xyz 0 1
 C        0.2324050000    -0.3098280000    -0.1312030000 
 C        1.6480400000     0.0272570000    -0.5686320000 
 C        2.6299940000    -0.1206810000     0.5730420000 
 O        3.9551140000     0.2621810000     0.1883920000 
 C        4.7157700000    -0.6871120000    -0.3765370000 
 C        6.0662370000    -0.1454530000    -0.7356210000 
 O        4.3513750000    -1.8174740000    -0.5608400000 
 H       -0.4716290000    -0.1921330000    -0.9569060000 
 H       -0.0999820000     0.3412830000     0.6822840000 
 H        0.1613770000    -1.3427570000     0.2193710000 
 H        1.6945360000     1.0539780000    -0.9448890000 
 H        1.9566240000    -0.6315250000    -1.3847210000 
 H        2.6472660000    -1.1498460000     0.9379920000 
 H        2.3735070000     0.5478890000     1.3974000000 
 H        6.5581280000     0.2499830000     0.1549150000 
 H        5.9581730000     0.6808860000    -1.4407680000 
 H        6.6691850000    -0.9349490000    -1.1768680000 
*
