! RI PBE def2-SVP def2-SVP/J NBO PAL2
% maxcore 2000
% output
    # printlevel mini
    print[ P_Basis ] 0
    print[ P_SCFInfo ] 1
    print[ P_SCFIterInfo ] 1
    print[ P_OrbEn ] 0
    print[ P_Cartesian ] 0
end
*xyz 0 1
 C        0.4359090000     0.2488630000     0.0018100000 
 C        1.9407970000     0.0417290000    -0.0015010000 
 C        2.6629200000     1.1164380000     0.7754180000 
 O        4.0485510000     0.8686590000     0.7348930000 
 C        4.7954450000     1.8186830000     1.4306960000 
 C        6.2556800000     1.4638430000     1.3257430000 
 O        7.1292660000     2.1099980000     1.8308660000 
 H       -0.0689830000    -0.5361730000    -0.5638600000 
 H        0.1635600000     1.2072360000    -0.4487500000 
 H        0.0328760000     0.2342820000     1.0181790000 
 H        2.3220020000     0.0361960000    -1.0270330000 
 H        2.1920830000    -0.9310240000     0.4317120000 
 H        2.3158610000     1.1324460000     1.8208870000 
 H        2.4473730000     2.1087610000     0.3481700000 
 H        4.5241890000     1.8585360000     2.4977540000 
 H        4.6552660000     2.8336360000     1.0257180000 
 H        6.4630950000     0.5454910000     0.7365790000 
*
