! RI PBE def2-SVP def2-SVP/J NBO PAL2
% maxcore 2000
% output
    # printlevel mini
    print[ P_Basis ] 0
    print[ P_SCFInfo ] 1
    print[ P_SCFIterInfo ] 1
    print[ P_OrbEn ] 0
    print[ P_Cartesian ] 0
end
*xyz 0 1
 C        0.4103380000     1.3894710000    -1.6536420000 
 C        1.1129270000     0.2594750000    -0.9204680000 
 C        2.3509690000     0.7361120000    -0.1987260000 
 O        2.9592250000    -0.3647300000     0.4483020000 
 C        4.1450640000    -0.0459320000     1.1018450000 
 O        3.9742050000     0.7546050000     2.2286800000 
 C        3.3194090000     0.0947140000     3.2868730000 
 H       -0.4816840000     1.0296850000    -2.1699060000 
 H        1.0640550000     1.8453490000    -2.4023740000 
 H        0.0977220000     2.1785170000    -0.9641150000 
 H        1.3972110000    -0.5310650000    -1.6216370000 
 H        0.4367710000    -0.1980490000    -0.1917420000 
 H        2.0946790000     1.5131660000     0.5325710000 
 H        3.0627090000     1.1808430000    -0.9119020000 
 H        4.8156610000     0.5188080000     0.4417940000 
 H        4.5984990000    -1.0078140000     1.3741690000 
 H        3.2724260000     0.7932500000     4.1219690000 
 H        3.8777680000    -0.7980670000     3.5988800000 
 H        2.3041370000    -0.2072400000     3.0107090000 
*
