! RI PBE def2-SVP def2-SVP/J NBO PAL2
% maxcore 2000
% output
    # printlevel mini
    print[ P_Basis ] 0
    print[ P_SCFInfo ] 1
    print[ P_SCFIterInfo ] 1
    print[ P_OrbEn ] 0
    print[ P_Cartesian ] 0
end
*xyz 0 1
 C        2.3950430000    -1.2182630000    -1.8786580000 
 C        3.0193120000     0.1023780000    -1.4627340000 
 C        4.0533800000    -0.0666440000    -0.3667610000 
 O        5.1381660000    -0.7611370000    -0.9103000000 
 C        6.0554200000    -1.2231980000     0.0523520000 
 O        4.4466430000     1.1361910000     0.2407140000 
 C        4.9933000000     2.1062020000    -0.6240930000 
 H        1.6428690000    -1.0688200000    -2.6559440000 
 H        1.9034110000    -1.7067970000    -1.0324770000 
 H        3.1529660000    -1.9007130000    -2.2663220000 
 H        2.2535930000     0.7886760000    -1.0895230000 
 H        3.4933350000     0.5781250000    -2.3259660000 
 H        3.6270530000    -0.6443890000     0.4673060000 
 H        6.8342340000    -1.7678060000    -0.4813850000 
 H        5.5697560000    -1.9020770000     0.7655770000 
 H        6.5081270000    -0.3975480000     0.6101000000 
 H        5.4497120000     2.8672490000     0.0092080000 
 H        4.2246720000     2.5838840000    -1.2422710000 
 H        5.7609170000     1.6795870000    -1.2775340000 
*
