! RI PBE def2-SVP def2-SVP/J NBO PAL2
% maxcore 2000
% output
    # printlevel mini
    print[ P_Basis ] 0
    print[ P_SCFInfo ] 1
    print[ P_SCFIterInfo ] 1
    print[ P_OrbEn ] 0
    print[ P_Cartesian ] 0
end
*xyz 0 1
 C        1.1211630000     0.7638070000    -1.0310610000 
 C        2.4837750000     1.1010120000    -0.4635240000 
 C        3.3155930000    -0.1133760000    -0.1720250000 
 O        2.9906410000    -1.2518640000    -0.3484350000 
 O        4.5224120000     0.2562780000     0.3336650000 
 C        5.4147910000    -0.7329610000     0.6587840000 
 C        6.5994620000    -0.4255930000     1.1558190000 
 H        0.5544860000     1.6756810000    -1.2265070000 
 H        0.5493730000     0.1454000000    -0.3378810000 
 H        1.2115530000     0.2081300000    -1.9653630000 
 H        2.4056530000     1.6727760000     0.4669750000 
 H        3.0612980000     1.7354780000    -1.1437690000 
 H        5.0603730000    -1.7389100000     0.4731990000 
 H        6.9003320000     0.6013490000     1.3205010000 
 H        7.2914960000    -1.2170980000     1.4068230000 
*
