! RI PBE def2-SVP def2-SVP/J NBO PAL2
% maxcore 2000
% output
    # printlevel mini
    print[ P_Basis ] 0
    print[ P_SCFInfo ] 1
    print[ P_SCFIterInfo ] 1
    print[ P_OrbEn ] 0
    print[ P_Cartesian ] 0
end
*xyz 0 1
 C        1.0132100000     1.3721490000    -0.1386350000 
 C        2.5098260000     1.5497900000    -0.1673770000 
 O        3.0694210000     0.5406690000    -0.9803190000 
 C        4.4509260000     0.6125670000    -1.0511700000 
 C        5.0844120000     0.0563980000    -2.2748320000 
 C        5.1014430000     1.5437120000    -2.0288760000 
 C        6.3839900000     2.2471510000    -1.6907510000 
 H        0.5515850000     2.1397640000     0.4863450000 
 H        0.7496580000     0.3927530000     0.2652250000 
 H        0.5973080000     1.4500600000    -1.1450890000 
 H        2.9266180000     1.4823680000     0.8489000000 
 H        2.7782940000     2.5395700000    -0.5635700000 
 H        4.9588180000     0.4605620000    -0.0972880000 
 H        4.4113600000    -0.3194200000    -3.0351260000 
 H        6.0115360000    -0.4946780000    -2.1680630000 
 H        4.4004250000     2.1065010000    -2.6380180000 
 H        7.0047860000     1.6305770000    -1.0349630000 
 H        6.1981920000     3.1945290000    -1.1770590000 
 H        6.9704930000     2.4614580000    -2.5886460000 
*
