! RI PBE def2-SVP def2-SVP/J NBO PAL2
% maxcore 2000
% output
    # printlevel mini
    print[ P_Basis ] 0
    print[ P_SCFInfo ] 1
    print[ P_SCFIterInfo ] 1
    print[ P_OrbEn ] 0
    print[ P_Cartesian ] 0
end
*xyz 0 1
 C        1.2516100000    -0.4171700000     0.4413240000 
 C        2.6344920000     0.0512800000     0.0271790000 
 O        2.6267370000     0.5545220000    -1.2968860000 
 C        3.2106800000     1.0397980000     1.0189450000 
 C        4.3261410000     1.9584320000     0.6311440000 
 C        2.9609350000     2.5130050000     0.9148880000 
 C        2.7076830000     3.3346740000     2.1468360000 
 H        0.8657510000    -1.1486310000    -0.2713950000 
 H        0.5573490000     0.4290370000     0.4834230000 
 H        1.2723710000    -0.8762130000     1.4325850000 
 H        3.3051950000    -0.8143310000    -0.0161660000 
 H        1.8991620000     1.1782890000    -1.3732850000 
 H        3.2479790000     0.6503410000     2.0332790000 
 H        4.6463340000     1.9282910000    -0.4030050000 
 H        5.1106160000     2.1470960000     1.3550570000 
 H        2.4172810000     2.8421690000     0.0329960000 
 H        3.2946510000     2.9604720000     2.9899330000 
 H        1.6540820000     3.3072810000     2.4394150000 
 H        2.9842390000     4.3812600000     1.9909330000 
*
