! RI PBE def2-SVP def2-SVP/J NBO PAL2
% maxcore 2000
% output
    # printlevel mini
    print[ P_Basis ] 0
    print[ P_SCFInfo ] 1
    print[ P_SCFIterInfo ] 1
    print[ P_OrbEn ] 0
    print[ P_Cartesian ] 0
end
*xyz 0 1
 C        1.6347370000    -2.1432920000    -2.2240310000 
 C        2.7104110000    -1.8090730000    -1.2229150000 
 O        3.9351780000    -2.3499050000    -1.6781880000 
 C        4.9849200000    -2.0893080000    -0.8174220000 
 C        6.3569290000    -2.0848900000    -1.4023790000 
 C        5.7275630000    -0.8030660000    -0.9260410000 
 O        6.1551140000    -0.2170900000     0.2605930000 
 H        0.6736480000    -1.7422660000    -1.8949660000 
 H        1.5371360000    -3.2246010000    -2.3381210000 
 H        1.8708150000    -1.7158920000    -3.2005750000 
 H        2.4660180000    -2.2281830000    -0.2358640000 
 H        2.8076210000    -0.7216130000    -1.0991010000 
 H        4.8770830000    -2.4880280000     0.1912640000 
 H        6.4394100000    -2.2335720000    -2.4719020000 
 H        7.1511960000    -2.5123070000    -0.8028310000 
 H        5.3850860000    -0.1168340000    -1.6982270000 
 H        7.0378440000     0.1369200000     0.1220040000 
*
