! RI PBE def2-SVP def2-SVP/J NBO PAL2
% maxcore 2000
% output
    # printlevel mini
    print[ P_Basis ] 0
    print[ P_SCFInfo ] 1
    print[ P_SCFIterInfo ] 1
    print[ P_OrbEn ] 0
    print[ P_Cartesian ] 0
end
*xyz 0 1
 C        1.3098330000     0.4999250000    -0.6940210000 
 C        1.8277020000    -0.7725580000    -0.0845380000 
 O        1.2419960000    -1.3459150000     0.8062460000 
 C        3.0950140000    -1.3041040000    -0.6427540000 
 C        3.9716890000    -2.1537160000     0.2552820000 
 C        3.1956600000    -2.7940350000    -0.8278860000 
 O        3.8322970000    -3.2065420000    -1.9911290000 
 H        0.3695420000     0.7861030000    -0.2266870000 
 H        1.1675740000     0.3669210000    -1.7705400000 
 H        2.0463130000     1.2992650000    -0.5687260000 
 H        3.5985170000    -0.7165110000    -1.4004920000 
 H        3.6202180000    -2.2815480000     1.2718410000 
 H        5.0399090000    -2.0487770000     0.1133730000 
 H        2.3089130000    -3.3554130000    -0.5425700000 
 H        4.3250040000    -4.0083970000    -1.7951890000 
*
