! RI PBE def2-SVP def2-SVP/J NBO PAL2
% maxcore 2000
% output
    # printlevel mini
    print[ P_Basis ] 0
    print[ P_SCFInfo ] 1
    print[ P_SCFIterInfo ] 1
    print[ P_OrbEn ] 0
    print[ P_Cartesian ] 0
end
*xyz 0 1
 C        1.0781340000    -0.1123680000     0.2411510000 
 C        2.5805280000    -0.2338800000     0.2791960000 
 O        3.0976220000     0.7719690000     1.1181600000 
 C        4.4890820000     0.7571370000     1.2008650000 
 C        5.0979300000     1.8200370000     2.1140740000 
 C        6.1531760000     0.7768230000     2.5325380000 
 C        5.1935330000    -0.3268200000     2.0447480000 
 H        0.6505970000    -0.8791390000    -0.4086840000 
 H        0.7820180000     0.8676290000    -0.1380520000 
 H        0.6573140000    -0.2334520000     1.2412240000 
 H        3.0029820000    -0.1276450000    -0.7323590000 
 H        2.8764850000    -1.2261000000     0.6508070000 
 H        4.9302850000     0.8015980000     0.1927630000 
 H        4.4068460000     2.0329770000     2.9325600000 
 H        5.4280880000     2.7583930000     1.6671420000 
 H        6.4564690000     0.7565820000     3.5791930000 
 H        7.0494470000     0.8361150000     1.9119040000 
 H        4.5306900000    -0.6562760000     2.8488090000 
 H        5.6138550000    -1.1979800000     1.5400800000 
*
