! RI PBE def2-SVP def2-SVP/J NBO PAL2
% maxcore 2000
% output
    # printlevel mini
    print[ P_Basis ] 0
    print[ P_SCFInfo ] 1
    print[ P_SCFIterInfo ] 1
    print[ P_OrbEn ] 0
    print[ P_Cartesian ] 0
end
*xyz 0 1
 C        1.4588700000    -2.3596160000    -0.3969650000 
 C        2.6941660000    -2.0653790000    -0.7779950000 
 O        3.4018500000    -1.0449450000    -0.2485490000 
 C        4.7724230000    -1.0153260000    -0.5630150000 
 C        5.5051790000     0.2538780000    -0.1369480000 
 C        6.7159850000    -0.6356580000     0.2136170000 
 C        5.7520180000    -1.8367360000     0.2919510000 
 H        0.9284470000    -3.1657490000    -0.8831760000 
 H        0.9601280000    -1.8023950000     0.3858810000 
 H        3.2024190000    -2.6259890000    -1.5617100000 
 H        4.9120450000    -1.2197830000    -1.6324120000 
 H        5.0400510000     0.6577850000     0.7646210000 
 H        5.6252100000     1.0517210000    -0.8702350000 
 H        7.2825200000    -0.3845090000     1.1096740000 
 H        7.4096990000    -0.7253200000    -0.6244280000 
 H        5.3493170000    -1.9558190000     1.3000970000 
 H        6.0844810000    -2.8058620000    -0.0823060000 
*
