! RI PBE def2-SVP def2-SVP/J NBO PAL2
% maxcore 2000
% output
    # printlevel mini
    print[ P_Basis ] 0
    print[ P_SCFInfo ] 1
    print[ P_SCFIterInfo ] 1
    print[ P_OrbEn ] 0
    print[ P_Cartesian ] 0
end
*xyz 0 1
 C        1.7307660000     1.3101580000     0.0932320000 
 C        2.8027800000     0.2674900000     0.2464790000 
 O        3.1533460000    -0.1327410000     1.3308930000 
 C        3.4333400000    -0.2683290000    -1.0150720000 
 C        4.9803810000    -0.2684280000    -1.0829740000 
 C        4.9214730000    -1.6597100000    -1.7358240000 
 C        3.4990960000    -1.8076560000    -1.1698390000 
 H        1.3537300000     1.6184550000     1.0667730000 
 H        0.9126460000     0.9140060000    -0.5163570000 
 H        2.1296830000     2.1758440000    -0.4446350000 
 H        2.9995020000     0.1993230000    -1.9023680000 
 H        5.3890620000    -0.3188880000    -0.0721190000 
 H        5.4582590000     0.5448130000    -1.6308850000 
 H        5.6682740000    -2.3954250000    -1.4347390000 
 H        4.9156370000    -1.5925600000    -2.8259960000 
 H        3.5088890000    -2.2725910000    -0.1823530000 
 H        2.7377250000    -2.2821600000    -1.7903950000 
*
