! RI PBE def2-SVP def2-SVP/J NBO PAL2
% maxcore 2000
% output
    # printlevel mini
    print[ P_Basis ] 0
    print[ P_SCFInfo ] 1
    print[ P_SCFIterInfo ] 1
    print[ P_OrbEn ] 0
    print[ P_Cartesian ] 0
end
*xyz 0 1
 C        2.5136280000    -1.4860480000     0.0955070000 
 C        2.3146810000     0.0143170000    -0.0168850000 
 O        0.9636490000     0.3269770000    -0.3144150000 
 C        2.8180050000     0.7489820000     1.2136730000 
 C        2.6087280000     2.2716460000     1.3183240000 
 C        2.3625640000     2.0911990000     2.8276320000 
 C        2.0761850000     0.6012300000     2.5612140000 
 H        2.1453200000    -1.9889490000    -0.8004600000 
 H        1.9702560000    -1.8825460000     0.9601530000 
 H        3.5693930000    -1.7364240000     0.2252970000 
 H        2.8733440000     0.3868890000    -0.8832010000 
 H        0.4079700000    -0.0966050000     0.3460500000 
 H        3.8771170000     0.5060190000     1.3527750000 
 H        1.6949980000     2.5621340000     0.7956710000 
 H        3.4251380000     2.9235930000     1.0029130000 
 H        1.5742990000     2.6853800000     3.2921730000 
 H        3.2818120000     2.2209860000     3.4031590000 
 H        1.0044850000     0.4332130000     2.4158550000 
 H        2.4474170000    -0.1331820000     3.2778850000 
*
