! RI PBE def2-SVP def2-SVP/J NBO PAL2
% maxcore 2000
% output
    # printlevel mini
    print[ P_Basis ] 0
    print[ P_SCFInfo ] 1
    print[ P_SCFIterInfo ] 1
    print[ P_OrbEn ] 0
    print[ P_Cartesian ] 0
end
*xyz 0 1
 C        2.8246890000    -0.3464780000    -1.3305570000 
 C        2.3964440000     0.0304960000     0.0634940000 
 O        1.3735920000    -0.3592320000     0.5607450000 
 C        3.3442380000     0.9648600000     0.7893870000 
 C        3.0814430000     2.4573860000     0.4927220000 
 C        2.7252850000     2.5193080000     1.9810000000 
 O        3.0609010000     1.1377230000     2.1683780000 
 H        1.9746160000    -0.7316340000    -1.8908920000 
 H        3.5886670000    -1.1277120000    -1.2655830000 
 H        3.2746780000     0.4996860000    -1.8565980000 
 H        4.3784050000     0.6370890000     0.6191290000 
 H        2.2650840000     2.6635350000    -0.1991080000 
 H        3.9625800000     3.0254320000     0.1995800000 
 H        1.6709780000     2.7097420000     2.2008440000 
 H        3.3505100000     3.1750990000     2.5935480000 
*
