! RI PBE def2-SVP def2-SVP/J NBO PAL2
% maxcore 2000
% output
    # printlevel mini
    print[ P_Basis ] 0
    print[ P_SCFInfo ] 1
    print[ P_SCFIterInfo ] 1
    print[ P_OrbEn ] 0
    print[ P_Cartesian ] 0
end
*xyz 0 1
 C        2.9841710000    -1.3958890000    -0.3422830000 
 C        2.5111360000    -0.0263580000     0.1122460000 
 O        1.1054170000     0.0184840000     0.2384400000 
 C        3.1681390000     0.3845980000     1.4155160000 
 C        2.7090230000     1.6853660000     2.0806140000 
 C        2.3749690000     0.7904860000     3.2730540000 
 O        2.6605390000    -0.3997290000     2.5174900000 
 H        2.4609290000    -1.6884840000    -1.2536930000 
 H        2.7815120000    -2.1437930000     0.4292660000 
 H        4.0589880000    -1.3966440000    -0.5417260000 
 H        2.7683830000     0.7244200000    -0.6440630000 
 H        0.8926120000    -0.5179120000     1.0115580000 
 H        4.2580860000     0.2829980000     1.3355550000 
 H        1.8357190000     2.1203970000     1.5964140000 
 H        3.4724770000     2.4454300000     2.2378740000 
 H        1.3421060000     0.8070260000     3.6316420000 
 H        3.0541930000     0.8881040000     4.1265060000 
*
