! RI PBE def2-SVP def2-SVP/J NBO PAL2
% maxcore 2000
% output
    # printlevel mini
    print[ P_Basis ] 0
    print[ P_SCFInfo ] 1
    print[ P_SCFIterInfo ] 1
    print[ P_OrbEn ] 0
    print[ P_Cartesian ] 0
end
*xyz 0 1
 C        1.0265540000    -0.0519550000    -1.3087080000 
 C        2.5302460000    -0.0191580000    -1.4021850000 
 O        3.0556230000    -1.1030130000    -0.6676550000 
 C        4.4455540000    -1.1426300000    -0.6709460000 
 C        5.0355320000    -2.3349400000     0.0730150000 
 O        5.8458500000    -2.6872290000    -1.0578120000 
 C        5.1611900000    -1.7433960000    -1.8922440000 
 H        0.5939480000     0.7813300000    -1.8664690000 
 H        0.7050690000     0.0238530000    -0.2682590000 
 H        0.6355970000    -0.9838120000    -1.7213710000 
 H        2.9250460000     0.9259450000    -0.9989310000 
 H        2.8516130000    -0.0835230000    -2.4524610000 
 H        4.8630560000    -0.1755090000    -0.3611700000 
 H        4.2815120000    -3.0978050000     0.2963190000 
 H        5.6354980000    -2.1306950000     0.9633880000 
 H        4.4707400000    -2.2350920000    -2.5885210000 
 H        5.8569720000    -1.1055690000    -2.4444010000 
*
