! RI PBE def2-SVP def2-SVP/J NBO PAL2
% maxcore 2000
% output
    # printlevel mini
    print[ P_Basis ] 0
    print[ P_SCFInfo ] 1
    print[ P_SCFIterInfo ] 1
    print[ P_OrbEn ] 0
    print[ P_Cartesian ] 0
end
*xyz 0 1
 C        1.7198310000    -0.7623330000     1.2317990000 
 C        2.7767980000    -0.2648060000     0.6076140000 
 O        3.5077070000     0.7580050000     1.1099510000 
 C        4.7499300000     0.9826150000     0.5035690000 
 C        5.4457830000     2.2568320000     0.9653510000 
 O        6.6512530000     1.5324230000     1.2491830000 
 C        5.9779680000     0.2759840000     1.0909630000 
 H        1.1483220000    -1.5517450000     0.7651840000 
 H        1.4043260000    -0.3883200000     2.1974610000 
 H        3.1055390000    -0.6375210000    -0.3614480000 
 H        4.6671290000     0.8887470000    -0.5839790000 
 H        4.9898590000     2.6736460000     1.8701540000 
 H        5.6003090000     3.0468130000     0.2265900000 
 H        5.7663350000    -0.2051520000     2.0527090000 
 H        6.5307200000    -0.4089890000     0.4425980000 
*
