! RI PBE def2-SVP def2-SVP/J NBO PAL2
% maxcore 2000
% output
    # printlevel mini
    print[ P_Basis ] 0
    print[ P_SCFInfo ] 1
    print[ P_SCFIterInfo ] 1
    print[ P_OrbEn ] 0
    print[ P_Cartesian ] 0
end
*xyz 0 1
 C        1.4268170000     1.0055070000     0.3675920000 
 C        2.7500320000     0.2986250000     0.2967210000 
 O        3.3322060000    -0.0789590000     1.2837770000 
 C        3.3364290000     0.0732640000    -1.0767230000 
 C        4.8178030000     0.4513890000    -1.2593700000 
 O        5.1559480000    -0.8593240000    -1.7211420000 
 C        3.8558100000    -1.3450270000    -1.3755820000 
 H        1.1053480000     1.1113570000     1.4019430000 
 H        0.6765700000     0.4482690000    -0.2021350000 
 H        1.5058810000     1.9908530000    -0.1023020000 
 H        2.6924570000     0.4690070000    -1.8621240000 
 H        5.3187990000     0.6903160000    -0.3159760000 
 H        5.0286700000     1.2198650000    -2.0076840000 
 H        3.8853750000    -1.9863640000    -0.4890970000 
 H        3.3756660000    -1.8670680000    -2.2073990000 
*
