! RI PBE def2-SVP def2-SVP/J NBO PAL2
% maxcore 2000
% output
    # printlevel mini
    print[ P_Basis ] 0
    print[ P_SCFInfo ] 1
    print[ P_SCFIterInfo ] 1
    print[ P_OrbEn ] 0
    print[ P_Cartesian ] 0
end
*xyz 0 1
 C        1.4094840000    -0.7199370000     0.6018940000 
 C        2.5436880000     0.0434820000    -0.0586380000 
 O        2.1848560000     0.5039550000    -1.3430750000 
 C        3.0446340000     1.1457260000     0.8482960000 
 O        4.0973500000     1.9614340000     0.3686640000 
 C        2.8339590000     2.5706280000     0.5985800000 
 C        2.7608170000     3.5796820000     1.7012250000 
 H        1.0742660000    -1.5291640000    -0.0484580000 
 H        0.5588650000    -0.0578760000     0.7973300000 
 H        1.7206390000    -1.1510740000     1.5562020000 
 H        3.3846580000    -0.6372820000    -0.2323770000 
 H        1.3259460000     0.9311860000    -1.2790790000 
 H        3.1687600000     0.8363180000     1.8880540000 
 H        2.3254910000     2.8411380000    -0.3259380000 
 H        3.2925380000     3.2258130000     2.5861890000 
 H        1.7207130000     3.7779280000     1.9739630000 
 H        3.2109360000     4.5243220000     1.3859580000 
*
