! RI PBE def2-SVP def2-SVP/J NBO PAL2
% maxcore 2000
% output
    # printlevel mini
    print[ P_Basis ] 0
    print[ P_SCFInfo ] 1
    print[ P_SCFIterInfo ] 1
    print[ P_OrbEn ] 0
    print[ P_Cartesian ] 0
end
*xyz 0 1
 C        1.0299950000    -0.4515990000     0.9078150000 
 C        2.2773430000    -0.1468180000     0.1085370000 
 O        3.2113400000     0.6099550000     0.8781880000 
 C        3.0040170000    -1.3342340000    -0.4791880000 
 O        4.1054380000    -0.9329460000    -1.2352210000 
 C        3.1348290000    -2.6303750000     0.2731860000 
 C        2.3181450000    -2.5435610000    -0.9929380000 
 H        0.6028670000     0.4810610000     1.2789950000 
 H        1.2514310000    -1.0879900000     1.7697200000 
 H        0.2745540000    -0.9526820000     0.2998850000 
 H        2.0217470000     0.5152900000    -0.7251840000 
 H        3.4159420000     0.0980680000     1.6679330000 
 H        4.5568170000    -0.2626930000    -0.7076020000 
 H        2.6068110000    -2.7694490000     1.2091130000 
 H        4.0966450000    -3.1226570000     0.2084550000 
 H        1.2409270000    -2.6162460000    -0.9141280000 
 H        2.7422410000    -2.9799330000    -1.8884740000 
*
