! RI PBE def2-SVP def2-SVP/J NBO PAL2
% maxcore 2000
% output
    # printlevel mini
    print[ P_Basis ] 0
    print[ P_SCFInfo ] 1
    print[ P_SCFIterInfo ] 1
    print[ P_OrbEn ] 0
    print[ P_Cartesian ] 0
end
*xyz 0 1
 C        1.2051500000    -0.3207060000     1.0028360000 
 C        2.5818190000    -0.2361240000     0.3938710000 
 O        3.2340530000    -1.4683550000     0.5669560000 
 C        4.5291040000    -1.4792290000     0.0218060000 
 C        5.1377390000    -2.8322870000     0.1938260000 
 C        6.6291430000    -2.9551950000     0.2622250000 
 C        5.7995870000    -3.1871560000     1.4876350000 
 H        0.6759590000     0.6268350000     0.8797650000 
 H        1.2698970000    -0.5448630000     2.0692840000 
 H        0.6208330000    -1.1080380000     0.5227290000 
 H        3.1651940000     0.5684980000     0.8694620000 
 H        2.5154440000     0.0070940000    -0.6786410000 
 H        5.1590120000    -0.7230730000     0.5197050000 
 H        4.4870030000    -1.2113640000    -1.0465590000 
 H        4.6067010000    -3.6305760000    -0.3139220000 
 H        7.2138820000    -2.0439400000     0.2112680000 
 H        7.0931860000    -3.8084670000    -0.2158680000 
 H        5.8157400000    -2.4300220000     2.2625800000 
 H        5.6963530000    -4.2007120000     1.8536510000 
*
