! RI PBE def2-SVP def2-SVP/J NBO PAL2
% maxcore 2000
% output
    # printlevel mini
    print[ P_Basis ] 0
    print[ P_SCFInfo ] 1
    print[ P_SCFIterInfo ] 1
    print[ P_OrbEn ] 0
    print[ P_Cartesian ] 0
end
*xyz 0 1
 C        1.0567420000    -0.1771050000     0.5502610000 
 C        2.5241720000    -0.4048520000     0.2954940000 
 O        3.0585870000    -1.4542220000     0.5523790000 
 C        3.2805400000     0.7572420000    -0.3141880000 
 C        4.7710260000     0.6063390000    -0.2819910000 
 C        5.6448500000     1.8062920000    -0.4757360000 
 C        5.5524570000     1.1526230000     0.8710080000 
 H        0.5622200000    -1.1223650000     0.7670620000 
 H        0.5789700000     0.3154740000    -0.3003100000 
 H        0.9433350000     0.4906040000     1.4102970000 
 H        2.9678780000     1.6838990000     0.1821100000 
 H        2.9180320000     0.8514290000    -1.3481940000 
 H        5.1308270000    -0.3292380000    -0.6936860000 
 H        5.1627200000     2.7687740000    -0.6042290000 
 H        6.5606970000     1.6893060000    -1.0414910000 
 H        5.0068410000     1.6746280000     1.6489240000 
 H        6.4020950000     0.5848810000     1.2280010000 
*
