! RI PBE def2-SVP def2-SVP/J NBO PAL2
% maxcore 2000
% output
    # printlevel mini
    print[ P_Basis ] 0
    print[ P_SCFInfo ] 1
    print[ P_SCFIterInfo ] 1
    print[ P_OrbEn ] 0
    print[ P_Cartesian ] 0
end
*xyz 0 1
 C        0.9982470000     0.0685280000    -0.1654360000 
 C        2.5077740000    -0.0196530000    -0.0470210000 
 O        3.0953270000    -0.4011820000    -1.2818270000 
 C        3.1204320000     1.2716070000     0.4805510000 
 C        4.6006220000     1.1751810000     0.7212880000 
 C        5.2740020000     2.1201240000     1.6659840000 
 C        5.1121880000     0.6755530000     2.0376760000 
 H        0.5923170000    -0.8636270000    -0.5622480000 
 H        0.7102540000     0.8826170000    -0.8399070000 
 H        0.5356100000     0.2632240000     0.8053300000 
 H        2.7690830000    -0.8332860000     0.6379080000 
 H        2.8517230000     0.2570610000    -1.9399170000 
 H        2.6163090000     1.5513020000     1.4132140000 
 H        2.9057890000     2.0772200000    -0.2363780000 
 H        5.1745260000     0.8776330000    -0.1496340000 
 H        4.6524980000     2.8443790000     2.1802900000 
 H        6.2660490000     2.4787640000     1.4209860000 
 H        4.3832640000     0.4319520000     2.8026820000 
 H        5.9925780000     0.0452230000     2.0448670000 
*
