! RI PBE def2-SVP def2-SVP/J NBO PAL2
% maxcore 2000
% output
    # printlevel mini
    print[ P_Basis ] 0
    print[ P_SCFInfo ] 1
    print[ P_SCFIterInfo ] 1
    print[ P_OrbEn ] 0
    print[ P_Cartesian ] 0
end
*xyz 0 1
 C        2.2986700000     0.4357980000     0.3690620000 
 C        2.0374240000     1.0249890000    -0.7934650000 
 O        2.9017700000     1.6306580000    -1.6290900000 
 C        4.2588070000     1.6327010000    -1.2440190000 
 C        5.0396710000     2.3184980000    -2.3222360000 
 C        5.3840020000     3.7309810000    -2.2247790000 
 O        6.3439050000     2.7216850000    -1.9492560000 
 H        1.4809590000    -0.0067020000     0.9203990000 
 H        3.2883790000     0.3720990000     0.8002420000 
 H        1.0321360000     1.0736600000    -1.1980160000 
 H        4.6126120000     0.6015050000    -1.1149200000 
 H        4.3934700000     2.1609020000    -0.2921820000 
 H        4.9637590000     1.8703640000    -3.3115600000 
 H        5.0478220000     4.3002520000    -1.3614960000 
 H        5.5613240000     4.3040990000    -3.1307630000 
*
