! RI PBE def2-SVP def2-SVP/J NBO PAL2
% maxcore 2000
% output
    # printlevel mini
    print[ P_Basis ] 0
    print[ P_SCFInfo ] 1
    print[ P_SCFIterInfo ] 1
    print[ P_OrbEn ] 0
    print[ P_Cartesian ] 0
end
*xyz 0 1
 C        2.9211530000     0.4464690000     1.8375920000 
 C        4.0255360000     0.0364970000     1.2365700000 
 O        5.1729400000     0.7648340000     1.2716950000 
 C        6.0417070000     0.6652140000     0.2263780000 
 C        5.6932750000     0.2565540000    -0.9976880000 
 C        7.3959600000     1.0776520000     0.5676240000 
 C        7.7894250000     1.4675270000     1.7763430000 
 H        2.0530090000    -0.1972140000     1.8558210000 
 H        2.8681430000     1.4099640000     2.3283310000 
 H        4.1100500000    -0.9197380000     0.7268060000 
 H        4.6762410000     0.0013430000    -1.2607620000 
 H        6.4480120000     0.1978380000    -1.7690830000 
 H        8.0993570000     1.0562360000    -0.2583650000 
 H        7.0992390000     1.4998250000     2.6103440000 
 H        8.8141430000     1.7669790000     1.9577730000 
*
