! RI PBE def2-SVP def2-SVP/J NBO PAL2
% maxcore 2000
% output
    # printlevel mini
    print[ P_Basis ] 0
    print[ P_SCFInfo ] 1
    print[ P_SCFIterInfo ] 1
    print[ P_OrbEn ] 0
    print[ P_Cartesian ] 0
end
*xyz 0 1
 C        1.6348300000     1.4491120000    -1.4597650000 
 C        2.9196930000     1.2440220000    -1.7005960000 
 O        3.7302270000     0.7038900000    -0.7526520000 
 C        5.0556570000     0.4879920000    -0.9912180000 
 C        5.8028290000    -0.0454440000    -0.0241380000 
 C        5.6003090000     0.8376100000    -2.2617090000 
 C        6.0764670000     1.1263090000    -3.3270030000 
 H        1.0145250000     1.8801060000    -2.2323880000 
 H        1.1856980000     1.1967000000    -0.5078120000 
 H        3.3977610000     1.4863430000    -2.6433840000 
 H        5.3627820000    -0.3011030000     0.9305690000 
 H        6.8537680000    -0.2241680000    -0.1927580000 
 H        6.5054540000     1.3794320000    -4.2681360000 
*
