! RI PBE def2-SVP def2-SVP/J NBO PAL2
% maxcore 2000
% output
    # printlevel mini
    print[ P_Basis ] 0
    print[ P_SCFInfo ] 1
    print[ P_SCFIterInfo ] 1
    print[ P_OrbEn ] 0
    print[ P_Cartesian ] 0
end
*xyz 0 1
 C        1.2973570000    -0.6522790000    -0.1857160000 
 C        2.7500540000    -0.2602170000    -0.1482710000 
 O        3.4986520000    -0.4962890000    -1.0716310000 
 C        3.2061410000     0.4280570000     1.0796580000 
 C        4.4769450000     0.8240410000     1.2268800000 
 C        4.9963240000     1.4987860000     2.3906580000 
 C        6.2694310000     1.8805900000     2.5061220000 
 H        1.0671430000    -1.1486670000    -1.1262460000 
 H        0.6660690000     0.2338990000    -0.0692650000 
 H        1.0662570000    -1.3177000000     0.6516650000 
 H        2.4774690000     0.6057510000     1.8661440000 
 H        5.1639190000     0.6204010000     0.4077170000 
 H        4.2991020000     1.6959800000     3.2016240000 
 H        6.9845880000     1.6955230000     1.7113140000 
 H        6.6337590000     2.3862250000     3.3920260000 
*
