! RI PBE def2-SVP def2-SVP/J NBO PAL2
% maxcore 2000
% output
    # printlevel mini
    print[ P_Basis ] 0
    print[ P_SCFInfo ] 1
    print[ P_SCFIterInfo ] 1
    print[ P_OrbEn ] 0
    print[ P_Cartesian ] 0
end
*xyz 0 1
 C        3.0635440000    -1.1168690000     0.9753310000 
 C        2.5691210000     0.0522770000     0.1583430000 
 O        1.6060560000     0.6827170000     0.5198300000 
 C        3.3170520000     0.4046230000    -1.1313300000 
 C        2.9420340000    -0.6489090000    -2.1820540000 
 C        2.8811180000     1.7811620000    -1.6145260000 
 C        4.8288230000     0.3834890000    -0.9000320000 
 H        2.2713760000    -1.4429360000     1.6471590000 
 H        3.9176270000    -0.7930770000     1.5779960000 
 H        3.4033400000    -1.9502400000     0.3584690000 
 H        1.8641320000    -0.6593460000    -2.3599470000 
 H        3.2513030000    -1.6541680000    -1.8871330000 
 H        3.4380160000    -0.4141030000    -3.1276060000 
 H        1.8036820000     1.8180430000    -1.7767500000 
 H        3.3860890000     2.0230160000    -2.5532930000 
 H        3.1279080000     2.5525100000    -0.8820370000 
 H        5.1872880000    -0.6034870000    -0.6000800000 
 H        5.1247810000     1.1028080000    -0.1316970000 
 H        5.3450990000     0.6551010000    -1.8244340000 
*
