! RI PBE def2-SVP def2-SVP/J NBO PAL2
% maxcore 2000
% output
    # printlevel mini
    print[ P_Basis ] 0
    print[ P_SCFInfo ] 1
    print[ P_SCFIterInfo ] 1
    print[ P_OrbEn ] 0
    print[ P_Cartesian ] 0
end
*xyz 0 1
 C        0.9118790000     0.0246300000    -0.0260320000 
 C        2.4112560000     0.0887040000    -0.0950820000 
 O        3.0194670000     0.2295380000    -1.1303740000 
 C        3.1012940000    -0.0297120000     1.1722460000 
 C        3.6573500000    -0.1302130000     2.2406650000 
 C        4.3643940000    -0.2420730000     3.4608620000 
 C        3.7741170000    -0.3977710000     4.6465120000 
 H        0.4945850000     0.1227230000    -1.0268630000 
 H        0.5349910000     0.8222030000     0.6196900000 
 H        0.6003940000    -0.9229330000     0.4214240000 
 H        5.4482090000    -0.1945850000     3.3952830000 
 H        2.6958000000    -0.4478860000     4.7387060000 
 H        4.3622540000    -0.4783160000     5.5523530000 
*
