! RI PBE def2-SVP def2-SVP/J NBO PAL2
% maxcore 2000
% output
    # printlevel mini
    print[ P_Basis ] 0
    print[ P_SCFInfo ] 1
    print[ P_SCFIterInfo ] 1
    print[ P_OrbEn ] 0
    print[ P_Cartesian ] 0
end
*xyz 0 1
 C        1.0287850000    -0.0689210000    -0.0674150000 
 C        2.5260190000    -0.0041430000    -0.1363470000 
 O        3.1307210000     0.7090090000    -0.9004570000 
 C        3.2329300000    -0.8692170000     0.7890450000 
 C        3.8144590000    -1.5940570000     1.5645900000 
 C        4.4766720000    -2.4049470000     2.4327790000 
 C        5.0616150000    -3.1239170000     3.2033790000 
 H        0.6001390000     0.6141760000    -0.7987930000 
 H        0.6908340000     0.1935530000     0.9386910000 
 H        0.6911530000    -1.0906420000    -0.2609330000 
 H        5.5810730000    -3.7579940000     3.8829600000 
*
