! RI PBE def2-SVP def2-SVP/J NBO PAL2
% maxcore 2000
% output
    # printlevel mini
    print[ P_Basis ] 0
    print[ P_SCFInfo ] 1
    print[ P_SCFIterInfo ] 1
    print[ P_OrbEn ] 0
    print[ P_Cartesian ] 0
end
*xyz 0 1
 C        1.0696500000     0.0174590000    -0.3151770000 
 C        2.5745850000     0.0320150000    -0.2901000000 
 O        3.2307580000     0.0371410000    -1.3021080000 
 C        3.2200810000     0.0412160000     1.0763920000 
 C        4.7415220000     0.0693090000     1.0153040000 
 C        5.3468100000     0.0764540000     2.3357600000 
 C        5.8298480000     0.0824270000     3.4349580000 
 H        0.7150380000    -0.0077630000    -1.3438040000 
 H        0.6761310000     0.9049940000     0.1885520000 
 H        0.6883500000    -0.8505660000     0.2298160000 
 H        2.8710060000    -0.8371900000     1.6307500000 
 H        2.8384560000     0.9027670000     1.6356680000 
 H        5.0688120000     0.9483340000     0.4528730000 
 H        5.1006700000    -0.7936060000     0.4474690000 
 H        6.2672850000     0.0879390000     4.4050270000 
*
