! RI PBE def2-SVP def2-SVP/J NBO PAL2
% maxcore 2000
% output
    # printlevel mini
    print[ P_Basis ] 0
    print[ P_SCFInfo ] 1
    print[ P_SCFIterInfo ] 1
    print[ P_OrbEn ] 0
    print[ P_Cartesian ] 0
end
*xyz 0 1
 C        0.8785820000    -0.3682610000    -0.1284630000 
 C        2.3647300000    -0.0314150000    -0.1032320000 
 O        3.1344470000    -1.2243400000    -0.1931120000 
 C        2.7927540000     0.8922050000    -1.2194950000 
 C        2.0071160000     1.4945830000    -2.1009480000 
 C        2.7082520000     0.6356460000     1.2020990000 
 C        3.6297520000     0.2135630000     2.0534040000 
 H        0.5992140000    -0.8184540000    -1.0849170000 
 H        0.2612790000     0.5192170000     0.0251730000 
 H        0.6646540000    -1.0802710000     0.6692960000 
 H        3.0060630000    -1.5837750000    -1.0753000000 
 H        3.8696910000     1.0400550000    -1.2595730000 
 H        0.9288870000     1.3797420000    -2.0903310000 
 H        2.4210700000     2.1366620000    -2.8699140000 
 H        2.1318410000     1.5330570000     1.4107370000 
 H        4.2103090000    -0.6780430000     1.8514180000 
 H        3.8212690000     0.7478100000     2.9766570000 
*
