! RI PBE def2-SVP def2-SVP/J NBO PAL2
% maxcore 2000
% output
    # printlevel mini
    print[ P_Basis ] 0
    print[ P_SCFInfo ] 1
    print[ P_SCFIterInfo ] 1
    print[ P_OrbEn ] 0
    print[ P_Cartesian ] 0
end
*xyz 0 1
 C        1.0100350000     0.2667440000     0.0817430000 
 C        2.5269520000     0.0732790000     0.0007070000 
 O        3.1607280000     0.7555480000     1.0832600000 
 C        2.8567350000    -1.4003200000     0.0734250000 
 C        3.4877700000    -2.1193080000    -0.8389840000 
 C        3.0316760000     0.6872580000    -1.2275670000 
 C        3.4106220000     1.1867670000    -2.2495470000 
 H        0.6288810000    -0.1947020000     0.9976650000 
 H        0.5126420000    -0.1978590000    -0.7706490000 
 H        0.7771710000     1.3319730000     0.0986960000 
 H        2.8564280000     0.3465340000     1.8995570000 
 H        2.5140300000    -1.8719400000     0.9942520000 
 H        3.8344670000    -1.6745410000    -1.7652610000 
 H        3.6773500000    -3.1751070000    -0.6851990000 
 H        3.7546130000     1.6399760000    -3.1491770000 
*
