! RI PBE def2-SVP def2-SVP/J NBO PAL2
% maxcore 2000
% output
    # printlevel mini
    print[ P_Basis ] 0
    print[ P_SCFInfo ] 1
    print[ P_SCFIterInfo ] 1
    print[ P_OrbEn ] 0
    print[ P_Cartesian ] 0
end
*xyz 0 1
 C        1.0447410000    -0.0363400000     0.0431640000 
 C        2.5781590000    -0.0273470000     0.0520040000 
 O        3.0840170000    -0.3945850000    -1.2251570000 
 C        3.0649690000     1.3094570000     0.4275810000 
 C        3.4315630000     2.4217270000     0.6870900000 
 C        3.0731980000    -1.0196810000     1.0130920000 
 C        3.4373200000    -1.8324870000     1.8145320000 
 H        0.6815820000     0.7056560000    -0.6707590000 
 H        0.6507820000     0.2030640000     1.0311780000 
 H        0.7021450000    -1.0271470000    -0.2554540000 
 H        2.9723880000     0.3649060000    -1.8059410000 
 H        3.7699880000     3.4018310000     0.9285850000 
 H        3.7734480000    -2.5551540000     2.5200840000 
*
