! RI PBE def2-SVP def2-SVP/J NBO PAL2
% maxcore 2000
% output
    # printlevel mini
    print[ P_Basis ] 0
    print[ P_SCFInfo ] 1
    print[ P_SCFIterInfo ] 1
    print[ P_OrbEn ] 0
    print[ P_Cartesian ] 0
end
*xyz 0 1
 C        1.8624940000    -0.7038070000    -1.4152040000 
 C        2.6851000000    -0.0004980000    -0.3485470000 
 O        1.9432770000     1.0695980000     0.2345740000 
 C        3.1651350000    -0.9628700000     0.6929600000 
 C        4.3849700000    -1.0605170000     1.2237360000 
 C        5.5479880000    -0.1956930000     0.8524480000 
 C        4.6837840000    -2.0834170000     2.2760070000 
 H        1.4930210000     0.0197270000    -2.1441340000 
 H        1.0009740000    -1.2084180000    -0.9659700000 
 H        2.4582780000    -1.4575940000    -1.9360640000 
 H        3.5330420000     0.4919310000    -0.8287850000 
 H        1.2889730000     0.6870630000     0.8265530000 
 H        2.4016540000    -1.6531550000     1.0563600000 
 H        5.3028290000     0.5644940000     0.1132270000 
 H        6.3698010000    -0.8054930000     0.4621640000 
 H        5.9350400000     0.3132930000     1.7413290000 
 H        3.8093580000    -2.6908960000     2.5131720000 
 H        5.0303730000    -1.6024020000     3.1970470000 
 H        5.4894170000    -2.7513460000     1.9524180000 
*
