! RI PBE def2-SVP def2-SVP/J NBO PAL2
% maxcore 2000
% output
    # printlevel mini
    print[ P_Basis ] 0
    print[ P_SCFInfo ] 1
    print[ P_SCFIterInfo ] 1
    print[ P_OrbEn ] 0
    print[ P_Cartesian ] 0
end
*xyz 0 1
 C        3.8502670000     0.4373900000    -0.9689330000 
 C        2.7240210000    -0.0518300000    -0.0806210000 
 O        2.0348310000    -1.1469470000    -0.6748330000 
 C        3.1233680000    -0.4096130000     1.3174280000 
 C        4.3383720000    -0.2924560000     1.8584010000 
 C        4.6544490000    -0.6754070000     3.2190300000 
 C        5.8623880000    -0.5554930000     3.7691460000 
 H        3.4594460000     0.6420940000    -1.9663840000 
 H        4.6378740000    -0.3165610000    -1.0578050000 
 H        4.2975630000     1.3545200000    -0.5788390000 
 H        1.9608690000     0.7342450000    -0.0221090000 
 H        2.6241030000    -1.9072340000    -0.6505510000 
 H        2.3143160000    -0.8209410000     1.9190040000 
 H        5.1569930000     0.1168330000     1.2705880000 
 H        3.8369640000    -1.0840720000     3.8093580000 
 H        6.6996130000    -0.1508930000     3.2092370000 
 H        6.0528830000    -0.8558240000     4.7920830000 
*
