! RI PBE def2-SVP def2-SVP/J NBO PAL2
% maxcore 2000
% output
    # printlevel mini
    print[ P_Basis ] 0
    print[ P_SCFInfo ] 1
    print[ P_SCFIterInfo ] 1
    print[ P_OrbEn ] 0
    print[ P_Cartesian ] 0
end
*xyz 0 1
 C        0.9179000000     0.1247650000    -0.0502610000 
 C        2.4210010000     0.0228710000     0.1453460000 
 O        3.1202660000     0.7406500000    -0.8615740000 
 C        2.8328690000     0.4795410000     1.5087750000 
 C        3.4472540000    -0.2955420000     2.4036340000 
 C        3.8323130000     0.1295160000     3.6992600000 
 C        4.1711760000     0.4603760000     4.8055990000 
 H        0.6503700000    -0.1968510000    -1.0586540000 
 H        0.5803900000     1.1578970000     0.0839700000 
 H        0.3840280000    -0.4960590000     0.6722710000 
 H        2.7345180000    -1.0167960000     0.0126280000 
 H        2.8115820000     1.6517730000    -0.8536020000 
 H        2.6057610000     1.5132640000     1.7652770000 
 H        3.6787610000    -1.3272590000     2.1462980000 
 H        4.4692190000     0.7613660000     5.7818440000 
*
