! RI PBE def2-SVP def2-SVP/J NBO PAL2
% maxcore 2000
% output
    # printlevel mini
    print[ P_Basis ] 0
    print[ P_SCFInfo ] 1
    print[ P_SCFIterInfo ] 1
    print[ P_OrbEn ] 0
    print[ P_Cartesian ] 0
end
*xyz 0 1
 C        2.9763830000    -1.4376420000    -0.0850830000 
 C        2.5279550000     0.0105890000    -0.0037470000 
 O        1.1107340000     0.0832510000    -0.0380560000 
 C        3.1135990000     0.8216070000     1.1760720000 
 C        2.6531240000     2.2711270000     1.0308740000 
 C        2.6340270000     0.2755110000     2.5188780000 
 C        4.6395590000     0.7817640000     1.1232310000 
 H        2.5121030000    -1.9089000000    -0.9533010000 
 H        2.6756010000    -2.0010210000     0.8038910000 
 H        4.0585620000    -1.5280160000    -0.1888060000 
 H        2.8463090000     0.5203460000    -0.9209340000 
 H        0.7658140000    -0.5142600000     0.6311890000 
 H        1.5643220000     2.3359750000     1.0131570000 
 H        3.0307190000     2.7089670000     0.1018630000 
 H        3.0242900000     2.8777990000     1.8615120000 
 H        1.5450740000     0.3261020000     2.6067140000 
 H        3.0481890000     0.8712870000     3.3365330000 
 H        2.9481220000    -0.7591030000     2.6794240000 
 H        5.0081250000     1.0807140000     0.1369210000 
 H        5.0345930000    -0.2120170000     1.3456800000 
 H        5.0612960000     1.4749210000     1.8558780000 
*
