! RI PBE def2-SVP def2-SVP/J NBO PAL2
% maxcore 2000
% output
    # printlevel mini
    print[ P_Basis ] 0
    print[ P_SCFInfo ] 1
    print[ P_SCFIterInfo ] 1
    print[ P_OrbEn ] 0
    print[ P_Cartesian ] 0
end
*xyz 0 1
 C        2.7467810000    -0.2372460000     1.3697330000 
 C        2.4259590000    -0.0089600000    -0.0943150000 
 O        2.8656360000     1.2573490000    -0.5326050000 
 C        2.9704150000    -1.1320480000    -1.0039370000 
 C        2.4231780000    -1.0164420000    -2.4257010000 
 C        4.4283710000    -1.1111200000    -0.9988900000 
 C        5.6280630000    -1.0372870000    -1.0002450000 
 H        2.3426380000     0.5803580000     1.9685500000 
 H        3.8283250000    -0.2799780000     1.5264910000 
 H        2.3154560000    -1.1758810000     1.7274780000 
 H        1.3393510000     0.0074670000    -0.2282750000 
 H        3.8297240000     1.2536610000    -0.5033140000 
 H        2.6450130000    -2.0873350000    -0.5739070000 
 H        2.6783470000    -0.0444350000    -2.8490400000 
 H        1.3350140000    -1.1130380000    -2.4157930000 
 H        2.8341660000    -1.7956390000    -3.0688410000 
 H        6.6918530000    -0.9984460000    -1.0070000000 
*
