! RI PBE def2-SVP def2-SVP/J NBO PAL2
% maxcore 2000
% output
    # printlevel mini
    print[ P_Basis ] 0
    print[ P_SCFInfo ] 1
    print[ P_SCFIterInfo ] 1
    print[ P_OrbEn ] 0
    print[ P_Cartesian ] 0
end
*xyz 0 1
 C        1.0798860000    -0.1904770000    -0.1134410000 
 C        2.5703940000     0.0707540000     0.0583140000 
 O        2.9078710000     1.4112950000    -0.2542290000 
 C        3.0287100000    -0.3045720000     1.3948550000 
 C        3.3938060000    -0.5846880000     2.5101920000 
 C        3.8002240000    -0.9410680000     3.8207550000 
 C        4.8705270000    -0.4433970000     4.4397630000 
 H        0.7771080000     0.0935230000    -1.1224460000 
 H        0.5045090000     0.3962040000     0.6067020000 
 H        0.8498690000    -1.2458200000     0.0457300000 
 H        3.1204270000    -0.5297430000    -0.6745080000 
 H        2.6009340000     1.9682960000     0.4674730000 
 H        3.1751960000    -1.6686550000     4.3330830000 
 H        5.5153380000     0.2826680000     3.9592870000 
 H        5.1222110000    -0.7544390000     5.4460710000 
*
