! RI PBE def2-SVP def2-SVP/J NBO PAL2
% maxcore 2000
% output
    # printlevel mini
    print[ P_Basis ] 0
    print[ P_SCFInfo ] 1
    print[ P_SCFIterInfo ] 1
    print[ P_OrbEn ] 0
    print[ P_Cartesian ] 0
end
*xyz 0 1
 C        1.0671060000    -0.0887140000     0.0187280000 
 C        2.5888870000    -0.0243830000     0.0032370000 
 O        3.0966280000     0.2306670000    -1.2929760000 
 C        3.0878730000     0.9452440000     0.9757560000 
 C        3.4797900000     1.7752880000     1.7617900000 
 C        3.9290940000     2.7055770000     2.6511650000 
 C        4.3245750000     3.5301600000     3.4365550000 
 H        0.7326130000    -0.8296340000    -0.7088480000 
 H        0.6411440000     0.8827410000    -0.2428780000 
 H        0.6994630000    -0.3667470000     1.0082360000 
 H        2.9885220000    -1.0089100000     0.2690710000 
 H        2.8887030000     1.1419030000    -1.5216190000 
 H        4.6757920000     4.2564060000     4.1306830000 
*
