! RI PBE def2-SVP def2-SVP/J NBO PAL2
% maxcore 2000
% output
    # printlevel mini
    print[ P_Basis ] 0
    print[ P_SCFInfo ] 1
    print[ P_SCFIterInfo ] 1
    print[ P_OrbEn ] 0
    print[ P_Cartesian ] 0
end
*xyz 0 1
 C        0.9725800000     0.3688770000     0.3381770000 
 C        2.4813170000     0.2291920000     0.4068470000 
 O        2.8736880000    -0.5128190000     1.5512750000 
 C        3.0601230000    -0.3646720000    -0.8700270000 
 C        4.5846690000    -0.4130980000    -0.8777450000 
 C        5.1335530000    -1.1028110000    -2.0809460000 
 C        5.9379540000    -0.5537540000    -2.9806540000 
 H        0.5859080000     0.7881410000     1.2686870000 
 H        0.5017570000    -0.6076330000     0.1796500000 
 H        0.6725450000     1.0189400000    -0.4871950000 
 H        2.9242170000     1.2190470000     0.5648300000 
 H        2.4443690000    -1.3727090000     1.5070740000 
 H        2.7063110000     0.2156240000    -1.7289420000 
 H        2.6549900000    -1.3781240000    -0.9989140000 
 H        4.9146600000    -0.9326130000     0.0289190000 
 H        4.9863500000     0.6041430000    -0.8215260000 
 H        4.8281810000    -2.1402560000    -2.2153070000 
 H        6.2678470000     0.4769420000    -2.8896100000 
 H        6.3004620000    -1.1120140000    -3.8360930000 
*
