! RI PBE def2-SVP def2-SVP/J NBO PAL2
% maxcore 2000
% output
    # printlevel mini
    print[ P_Basis ] 0
    print[ P_SCFInfo ] 1
    print[ P_SCFIterInfo ] 1
    print[ P_OrbEn ] 0
    print[ P_Cartesian ] 0
end
*xyz 0 1
 C        3.6598230000     2.9190260000     3.1797670000 
 C        4.6204970000     2.7728120000     2.0284200000 
 O        4.0632240000     1.8666260000     1.0984590000 
 C        4.7821840000     1.6075620000    -0.0119350000 
 C        5.9727940000     2.0910310000    -0.3611560000 
 C        6.6496880000     1.7163540000    -1.6405270000 
 C        6.8944890000     2.9094160000    -2.5580490000 
 H        4.0636490000     3.6149680000     3.9181210000 
 H        3.4921110000     1.9573930000     3.6682090000 
 H        2.6977600000     3.3022370000     2.8347910000 
 H        5.5921810000     2.3929100000     2.3706780000 
 H        4.7973500000     3.7381410000     1.5360790000 
 H        4.2519000000     0.9036200000    -0.6469410000 
 H        6.4916640000     2.7962200000     0.2809450000 
 H        6.0483310000     0.9655900000    -2.1636280000 
 H        7.6115240000     1.2364820000    -1.4210370000 
 H        5.9510900000     3.3798680000    -2.8450600000 
 H        7.4174660000     2.6082850000    -3.4693160000 
 H        7.5038950000     3.6688690000    -2.0604320000 
*
