! RI PBE def2-SVP def2-SVP/J NBO PAL2
% maxcore 2000
% output
    # printlevel mini
    print[ P_Basis ] 0
    print[ P_SCFInfo ] 1
    print[ P_SCFIterInfo ] 1
    print[ P_OrbEn ] 0
    print[ P_Cartesian ] 0
end
*xyz 0 1
 C        0.2628120000    -1.9014770000     0.1583720000 
 C        1.6426660000    -2.4621270000     0.3935540000 
 O        2.5436670000    -1.3769890000     0.4374080000 
 C        3.8699200000    -1.5594640000     0.6350940000 
 C        4.6517320000    -2.6267730000     0.8245500000 
 C        4.3001140000    -4.0829790000     0.8867170000 
 C        6.1302800000    -2.3447590000     1.0078780000 
 H       -0.4698940000    -2.7104480000     0.1172090000 
 H        0.2256090000    -1.3527130000    -0.7845020000 
 H       -0.0186210000    -1.2204820000     0.9637170000 
 H        1.9220670000    -3.1483120000    -0.4150040000 
 H        1.6768240000    -3.0156590000     1.3396610000 
 H        4.3439230000    -0.5815250000     0.6265270000 
 H        3.2459300000    -4.3058430000     0.7578320000 
 H        4.6144240000    -4.5026500000     1.8492890000 
 H        4.8539810000    -4.6344860000     0.1182560000 
 H        6.5679220000    -1.8487140000     0.1374090000 
 H        6.6811120000    -3.2757070000     1.1552550000 
 H        6.3264210000    -1.7156920000     1.8802980000 
*
