! RI PBE def2-SVP def2-SVP/J NBO PAL2
% maxcore 2000
% output
    # printlevel mini
    print[ P_Basis ] 0
    print[ P_SCFInfo ] 1
    print[ P_SCFIterInfo ] 1
    print[ P_OrbEn ] 0
    print[ P_Cartesian ] 0
end
*xyz 0 1
 C        0.7348760000     1.2659070000    -1.5094720000 
 C        2.1214580000     1.8179470000    -1.7102270000 
 O        3.0358070000     0.9775820000    -1.0269700000 
 C        4.3339150000     1.3023570000    -1.0848470000 
 C        4.9046520000     2.3383850000    -1.7152150000 
 C        6.3333750000     2.5476850000    -1.6785820000 
 C        6.9794570000     3.5499260000    -2.2766660000 
 H        0.0054370000     1.8935580000    -2.0255980000 
 H        0.4778980000     1.2400680000    -0.4490580000 
 H        0.6599660000     0.2524060000    -1.9074510000 
 H        2.2036220000     2.8380110000    -1.3147240000 
 H        2.3858630000     1.8493770000    -2.7745610000 
 H        4.9317790000     0.5881560000    -0.5265280000 
 H        4.3066890000     3.0512120000    -2.2726150000 
 H        6.9100390000     1.8179880000    -1.1124120000 
 H        6.4502390000     4.3024600000    -2.8523780000 
 H        8.0555290000     3.6477750000    -2.2085850000 
*
