! RI PBE def2-SVP def2-SVP/J NBO PAL2
% maxcore 2000
% output
    # printlevel mini
    print[ P_Basis ] 0
    print[ P_SCFInfo ] 1
    print[ P_SCFIterInfo ] 1
    print[ P_OrbEn ] 0
    print[ P_Cartesian ] 0
end
*xyz 0 1
 C        2.0503470000    -0.9331580000    -0.1638320000 
 C        3.4572180000    -0.4008890000    -0.0751670000 
 O        4.2845500000    -1.4223770000     0.4439270000 
 C        5.6001310000    -1.1521720000     0.6002770000 
 C        6.1896540000     0.0096750000     0.3103430000 
 C        6.3217880000    -2.3443420000     1.1441550000 
 C        6.2960400000    -3.5419220000     0.2010560000 
 H        1.3839310000    -0.1634290000    -0.5587890000 
 H        1.6860820000    -1.2315960000     0.8208940000 
 H        2.0042130000    -1.8002580000    -0.8253570000 
 H        3.5062370000     0.4767750000     0.5818370000 
 H        3.8275870000    -0.0975940000    -1.0625840000 
 H        5.6597080000     0.8636770000    -0.0865440000 
 H        7.2521950000     0.1152330000     0.4779060000 
 H        5.8554130000    -2.6218520000     2.0961040000 
 H        7.3513130000    -2.0545100000     1.3622970000 
 H        5.2709020000    -3.8482060000    -0.0122980000 
 H        6.8190840000    -4.3925970000     0.6433410000 
 H        6.7820170000    -3.3009580000    -0.7473660000 
*
