! RI PBE def2-SVP def2-SVP/J NBO PAL2
% maxcore 2000
% output
    # printlevel mini
    print[ P_Basis ] 0
    print[ P_SCFInfo ] 1
    print[ P_SCFIterInfo ] 1
    print[ P_OrbEn ] 0
    print[ P_Cartesian ] 0
end
*xyz 0 1
 C        3.2048700000     0.8520560000    -0.5347690000 
 C        4.6082450000     0.3690870000    -0.2577640000 
 O        4.5735780000    -0.4054790000     0.9154370000 
 C        5.7974890000    -0.9757160000     1.3811600000 
 C        6.3766060000    -1.9467710000     0.3570580000 
 C        6.8124520000     0.1090670000     1.7280310000 
 C        5.3902470000    -1.7274410000     2.6377650000 
 H        3.1839760000     1.4605810000    -1.4418250000 
 H        2.8357380000     1.4560430000     0.2964240000 
 H        2.5275120000     0.0064110000    -0.6689970000 
 H        5.2819960000     1.2291690000    -0.1426730000 
 H        4.9736860000    -0.2210670000    -1.1092770000 
 H        6.7263240000    -1.4337740000    -0.5412840000 
 H        5.6241360000    -2.6834270000     0.0663670000 
 H        7.2301770000    -2.4780710000     0.7839760000 
 H        7.1659290000     0.6379070000     0.8403810000 
 H        7.6845550000    -0.3339530000     2.2141520000 
 H        6.3700700000     0.8361290000     2.4128940000 
 H        4.6450360000    -2.4877300000     2.3956880000 
 H        4.9521700000    -1.0382870000     3.3624350000 
 H        6.2530110000    -2.2156160000     3.0956200000 
*
