! RI PBE def2-SVP def2-SVP/J NBO PAL2
% maxcore 2000
% output
    # printlevel mini
    print[ P_Basis ] 0
    print[ P_SCFInfo ] 1
    print[ P_SCFIterInfo ] 1
    print[ P_OrbEn ] 0
    print[ P_Cartesian ] 0
end
*xyz 0 1
 C        0.9340000000    -1.2478550000    -1.9068190000 
 C        2.3819100000    -0.9270700000    -2.1789410000 
 O        3.1404380000    -1.2877030000    -1.0472520000 
 C        4.5227910000    -1.0085240000    -1.1625820000 
 C        5.1155980000    -1.1649780000     0.2234410000 
 C        5.1861520000    -1.9238770000    -2.1484930000 
 C        5.8806960000    -1.5233730000    -3.2030840000 
 H        0.3166360000    -0.9691120000    -2.7637340000 
 H        0.5755810000    -0.7040540000    -1.0305160000 
 H        0.8049930000    -2.3161760000    -1.7222840000 
 H        2.5078530000     0.1481870000    -2.3810850000 
 H        2.7367430000    -1.4657130000    -3.0681110000 
 H        4.6561790000     0.0308200000    -1.5040620000 
 H        4.9887230000    -2.1919050000     0.5738070000 
 H        4.6100500000    -0.4983880000     0.9244770000 
 H        6.1812020000    -0.9300190000     0.2128500000 
 H        5.0710980000    -2.9866000000    -1.9402280000 
 H        6.0010490000    -0.4682250000    -3.4313880000 
 H        6.3604300000    -2.2279560000    -3.8728880000 
*
