! RI PBE def2-SVP def2-SVP/J NBO PAL2
% maxcore 2000
% output
    # printlevel mini
    print[ P_Basis ] 0
    print[ P_SCFInfo ] 1
    print[ P_SCFIterInfo ] 1
    print[ P_OrbEn ] 0
    print[ P_Cartesian ] 0
end
*xyz 0 1
 C        1.2189590000     1.1464830000    -0.3299400000 
 C        2.7013310000     0.9036820000    -0.4601360000 
 O        3.2788370000     1.9691300000    -1.1704510000 
 C        4.6645720000     1.8262840000    -1.3407820000 
 C        5.2204030000     3.0196300000    -2.0940720000 
 C        4.9919030000     4.3145340000    -1.3292160000 
 C        6.6966980000     2.8012460000    -2.3913330000 
 H        0.7465760000     0.3282960000     0.2181360000 
 H        0.7531890000     1.2168380000    -1.3148350000 
 H        1.0272210000     2.0776550000     0.2068390000 
 H        2.8921070000    -0.0453060000    -0.9860610000 
 H        3.1678920000     0.8191060000     0.5340500000 
 H        4.8824240000     0.8979940000    -1.8934100000 
 H        5.1610690000     1.7428020000    -0.3583840000 
 H        4.6766790000     3.0777170000    -3.0450210000 
 H        5.5308260000     4.2991780000    -0.3758990000 
 H        3.9326540000     4.4627950000    -1.1155440000 
 H        5.3516510000     5.1742280000    -1.9001930000 
 H        7.2740310000     2.7184970000    -1.4647840000 
 H        7.1074010000     3.6389280000    -2.9595860000 
 H        6.8626970000     1.8897810000    -2.9718590000 
*
