! RI PBE def2-SVP def2-SVP/J NBO PAL2
% maxcore 2000
% output
    # printlevel mini
    print[ P_Basis ] 0
    print[ P_SCFInfo ] 1
    print[ P_SCFIterInfo ] 1
    print[ P_OrbEn ] 0
    print[ P_Cartesian ] 0
end
*xyz 0 1
 C        1.5164540000     0.8469280000    -1.0482810000 
 C        2.9390040000     1.0329750000    -0.5853550000 
 O        3.1839980000     2.4052420000    -0.4036100000 
 C        4.4962360000     2.6690690000     0.0287920000 
 C        4.7092230000     4.1477140000     0.1376920000 
 C        4.3894610000     4.9492680000    -1.0818060000 
 C        5.1853290000     4.6830590000     1.2562480000 
 H        1.3007380000    -0.2137710000    -1.1941850000 
 H        1.3479510000     1.3667160000    -1.9934280000 
 H        0.8172890000     1.2433330000    -0.3095600000 
 H        3.6443780000     0.6214960000    -1.3246690000 
 H        3.1112650000     0.4931550000     0.3589860000 
 H        5.2133970000     2.2495460000    -0.6990350000 
 H        4.6897430000     2.1843380000     0.9963290000 
 H        3.3377630000     4.8275480000    -1.3521120000 
 H        4.9759550000     4.6021200000    -1.9394170000 
 H        4.5944930000     6.0091050000    -0.9271670000 
 H        5.3941590000     4.0753730000     2.1301010000 
 H        5.3860530000     5.7460750000     1.3343600000 
*
