! RI PBE def2-SVP def2-SVP/J NBO PAL2
% maxcore 2000
% output
    # printlevel mini
    print[ P_Basis ] 0
    print[ P_SCFInfo ] 1
    print[ P_SCFIterInfo ] 1
    print[ P_OrbEn ] 0
    print[ P_Cartesian ] 0
end
*xyz 0 1
 C        2.8911640000    -0.2304300000    -0.6706290000 
 C        4.2095300000    -0.5288660000    -0.0029910000 
 O        4.0027510000    -0.6562710000     1.3815890000 
 C        5.1833940000    -0.9386300000     2.0867430000 
 C        4.8682090000    -1.0275780000     3.5685260000 
 C        4.3869100000     0.2624990000     4.1456530000 
 C        4.9516310000     0.8907930000     5.1674580000 
 H        3.0266330000    -0.1289810000    -1.7496180000 
 H        2.4676760000     0.6998920000    -0.2871190000 
 H        2.1758180000    -1.0342640000    -0.4863270000 
 H        4.9341790000     0.2762290000    -0.2009460000 
 H        4.6436040000    -1.4586900000    -0.4032650000 
 H        5.9320040000    -0.1516930000     1.9052070000 
 H        5.6136990000    -1.8905960000     1.7381990000 
 H        5.7638250000    -1.3646490000     4.0990040000 
 H        4.1009330000    -1.7999870000     3.6996720000 
 H        3.5119100000     0.6958730000     3.6677050000 
 H        5.8271200000     0.4876080000     5.6683840000 
 H        4.5593090000     1.8281320000     5.5449560000 
*
