! RI PBE def2-SVP def2-SVP/J NBO PAL2
% maxcore 2000
% output
    # printlevel mini
    print[ P_Basis ] 0
    print[ P_SCFInfo ] 1
    print[ P_SCFIterInfo ] 1
    print[ P_OrbEn ] 0
    print[ P_Cartesian ] 0
end
*xyz 0 1
 C        1.0584660000     1.3164430000    -1.2231800000 
 C        2.4948760000     0.9287380000    -0.9829190000 
 O        3.2880300000     1.4195170000    -2.0392310000 
 C        4.6569610000     1.1021850000    -1.8988770000 
 C        5.4263690000     1.6336850000    -3.0879140000 
 C        4.9620240000     1.0595090000    -4.4168770000 
 O        3.7021320000     1.5415110000    -4.8183760000 
 H        0.4285910000     0.9541860000    -0.4080400000 
 H        0.6911300000     0.8852700000    -2.1567050000 
 H        0.9567680000     2.4017150000    -1.2814760000 
 H        2.5977050000    -0.1649240000    -0.9188380000 
 H        2.8554680000     1.3457420000    -0.0307930000 
 H        4.7751390000     0.0088670000    -1.8312010000 
 H        5.0425950000     1.5327180000    -0.9629010000 
 H        6.4832440000     1.3875620000    -2.9379690000 
 H        5.3476440000     2.7249850000    -3.1215260000 
 H        4.9628870000    -0.0413870000    -4.3560990000 
 H        5.6666180000     1.3366730000    -5.2056100000 
 H        3.1355650000     1.5110960000    -4.0378480000 
*
