! RI PBE def2-SVP def2-SVP/J NBO PAL2
% maxcore 2000
% output
    # printlevel mini
    print[ P_Basis ] 0
    print[ P_SCFInfo ] 1
    print[ P_SCFIterInfo ] 1
    print[ P_OrbEn ] 0
    print[ P_Cartesian ] 0
end
*xyz 0 1
 C        1.2117120000     1.1583610000     0.5076080000 
 C        2.4927190000     0.8398440000     0.4837440000 
 O        3.4418050000     1.6771180000     0.9976840000 
 C        4.7213820000     1.2985900000     0.9446300000 
 C        5.7161770000     2.0522580000     1.4220430000 
 C        7.0783230000     1.5616780000     1.3222190000 
 O        8.0557350000     2.1508080000     1.7164570000 
 H        0.4869740000     0.4731220000     0.0923000000 
 H        0.8674340000     2.0915810000     0.9339510000 
 H        2.8758610000    -0.0866120000     0.0647710000 
 H        4.9144610000     0.3295260000     0.4853090000 
 H        5.5343630000     3.0170080000     1.8804380000 
 H        7.1774660000     0.5634170000     0.8386450000 
*
