! RI PBE def2-SVP def2-SVP/J NBO PAL2
% maxcore 2000
% output
    # printlevel mini
    print[ P_Basis ] 0
    print[ P_SCFInfo ] 1
    print[ P_SCFIterInfo ] 1
    print[ P_OrbEn ] 0
    print[ P_Cartesian ] 0
end
*xyz 0 1
 C        2.6554320000    -0.9539080000     2.5436280000 
 C        3.6528480000    -0.2312580000     2.0650940000 
 O        4.9299390000    -0.3890510000     2.5133260000 
 C        5.9523790000    -0.1236100000     1.6581650000 
 C        5.8900340000    -0.0422000000     0.3315480000 
 C        7.2245380000     0.0563090000     2.4063330000 
 O        8.2841740000     0.2837390000     1.8903500000 
 H        1.6449120000    -0.7498950000     2.2189160000 
 H        2.8234330000    -1.7410540000     3.2674950000 
 H        3.5253580000     0.5613370000     1.3323560000 
 H        4.9836670000    -0.2135560000    -0.2323750000 
 H        6.8042470000     0.1891580000    -0.1982080000 
 H        7.1133400000    -0.0390020000     3.5052740000 
*
