! RI PBE def2-SVP def2-SVP/J NBO PAL2
% maxcore 2000
% output
    # printlevel mini
    print[ P_Basis ] 0
    print[ P_SCFInfo ] 1
    print[ P_SCFIterInfo ] 1
    print[ P_OrbEn ] 0
    print[ P_Cartesian ] 0
end
*xyz 0 1
 C        0.5915090000    -0.3934380000    -0.0206950000 
 C        1.9087890000     0.1720530000    -0.4801790000 
 O        1.9917300000     0.8707490000    -1.4607890000 
 C        3.1151230000    -0.1840900000     0.3602150000 
 C        4.4436300000     0.1845790000    -0.2726520000 
 C        4.8365490000    -0.7474820000    -1.4057970000 
 O        4.9615250000    -2.0967350000    -0.9924320000 
 H       -0.2292100000     0.0861970000    -0.5511680000 
 H        0.4661660000    -0.2781320000     1.0587720000 
 H        0.5750050000    -1.4676970000    -0.2298810000 
 H        3.0788820000    -1.2544330000     0.5906890000 
 H        2.9820900000     0.3267300000     1.3224750000 
 H        5.2286040000     0.1710540000     0.4925160000 
 H        4.3929380000     1.2050960000    -0.6624740000 
 H        5.7658510000    -0.3947950000    -1.8714040000 
 H        4.0650070000    -0.7422290000    -2.1779250000 
 H        5.7106220000    -2.1601240000    -0.3944700000 
*
