! RI PBE def2-SVP def2-SVP/J NBO PAL2
% maxcore 2000
% output
    # printlevel mini
    print[ P_Basis ] 0
    print[ P_SCFInfo ] 1
    print[ P_SCFIterInfo ] 1
    print[ P_OrbEn ] 0
    print[ P_Cartesian ] 0
end
*xyz 0 1
 C        2.0969660000     0.0929900000     1.2284300000 
 C        3.4143160000    -0.0202390000     0.5105390000 
 O        4.4591980000    -0.1426960000     1.1095350000 
 C        3.3518130000     0.0305040000    -0.9716370000 
 C        4.4604600000    -0.0009160000    -1.7065340000 
 C        4.5191700000     0.0411520000    -3.1917200000 
 O        3.2763930000     0.0354150000    -3.8430310000 
 H        2.2504270000     0.0524020000     2.3048690000 
 H        1.4300480000    -0.7168450000     0.9172890000 
 H        1.6022770000     1.0305580000     0.9574340000 
 H        2.3773740000     0.1213380000    -1.4419410000 
 H        5.4136360000    -0.0678650000    -1.1843740000 
 H        5.1628120000    -0.7815350000    -3.5411190000 
 H        5.0250630000     0.9636160000    -3.4999940000 
 H        2.8324560000    -0.7926800000    -3.6402460000 
*
