! RI PBE def2-SVP def2-SVP/J NBO PAL2
% maxcore 2000
% output
    # printlevel mini
    print[ P_Basis ] 0
    print[ P_SCFInfo ] 1
    print[ P_SCFIterInfo ] 1
    print[ P_OrbEn ] 0
    print[ P_Cartesian ] 0
end
*xyz 0 1
 C        1.7687930000    -0.6251550000    -0.5139270000 
 C        3.1693910000    -0.2053300000    -0.1764350000 
 O        4.1075320000    -0.9651600000    -0.2276700000 
 C        3.3455720000     1.2193230000     0.2313990000 
 C        4.5402100000     1.7114340000     0.5552850000 
 C        4.7205730000     3.1226230000     0.9602430000 
 O        3.8256070000     3.9257240000     1.0296750000 
 H        1.7466890000    -1.6753050000    -0.7970280000 
 H        1.3818710000    -0.0089920000    -1.3313930000 
 H        1.1117180000    -0.4550810000     0.3445250000 
 H        2.4751290000     1.8688470000     0.2639060000 
 H        5.4133180000     1.0658380000     0.5242630000 
 H        5.7603160000     3.4163240000     1.2062680000 
*
