! RI PBE def2-SVP def2-SVP/J NBO PAL2
% maxcore 2000
% output
    # printlevel mini
    print[ P_Basis ] 0
    print[ P_SCFInfo ] 1
    print[ P_SCFIterInfo ] 1
    print[ P_OrbEn ] 0
    print[ P_Cartesian ] 0
end
*xyz 0 1
 C        0.9050240000    -0.1756850000     0.1681980000 
 C        2.4084700000    -0.1559640000     0.1306810000 
 O        3.0310980000     0.6775930000     0.7597760000 
 C        3.1473690000    -1.1617320000    -0.6812790000 
 C        2.5164890000    -2.1198290000    -1.3571170000 
 C        4.6452050000    -1.0105120000    -0.6955580000 
 O        5.2165600000    -1.0850480000     0.5873380000 
 H        0.5606050000     0.6417240000     0.7983600000 
 H        0.5419330000    -1.1233220000     0.5736650000 
 H        0.4865570000    -0.0657460000    -0.8349440000 
 H        1.4369730000    -2.2133810000    -1.3605050000 
 H        3.0695060000    -2.8510140000    -1.9373010000 
 H        4.8992110000    -0.0585250000    -1.1834460000 
 H        5.0849570000    -1.8142990000    -1.2894560000 
 H        4.8642250000    -0.3305610000     1.0746780000 
*
