! RI PBE def2-SVP def2-SVP/J NBO PAL2
% maxcore 2000
% output
    # printlevel mini
    print[ P_Basis ] 0
    print[ P_SCFInfo ] 1
    print[ P_SCFIterInfo ] 1
    print[ P_OrbEn ] 0
    print[ P_Cartesian ] 0
end
*xyz 0 1
 C        0.8552850000     0.4091060000    -0.7836460000 
 C        2.3069190000     0.2553350000    -0.4198570000 
 O        2.7484310000    -0.8026590000    -0.0306550000 
 C        3.2093870000     1.4354760000    -0.5440970000 
 C        2.8060500000     2.6351260000    -0.9637570000 
 C        4.6445990000     1.2438820000    -0.1726660000 
 O        5.4616080000     2.1257470000    -0.2340120000 
 H        0.3534480000    -0.5442120000    -0.6324590000 
 H        0.7471970000     0.7166490000    -1.8268410000 
 H        0.3791320000     1.1739840000    -0.1649670000 
 H        1.7814630000     2.8409270000    -1.2478910000 
 H        3.5264590000     3.4444360000    -1.0265120000 
 H        4.9090130000     0.2283950000     0.1652610000 
*
