! RI PBE def2-SVP def2-SVP/J NBO PAL2
% maxcore 2000
% output
    # printlevel mini
    print[ P_Basis ] 0
    print[ P_SCFInfo ] 1
    print[ P_SCFIterInfo ] 1
    print[ P_OrbEn ] 0
    print[ P_Cartesian ] 0
end
*xyz 0 1
 C        2.9351730000    -1.1380090000    -0.3848030000 
 C        2.4589650000     0.2894930000    -0.4284350000 
 O        1.4978090000     0.6178030000    -1.0784930000 
 C        3.2549050000     1.3182360000     0.4006580000 
 C        2.7367260000     2.7204860000     0.1542510000 
 C        3.1838400000     0.9493850000     1.8732860000 
 O        4.6297360000     1.2142290000     0.0355280000 
 H        2.6019200000    -1.6581990000    -1.2816740000 
 H        2.4796110000    -1.6300670000     0.4804060000 
 H        4.0172070000    -1.2002770000    -0.2746310000 
 H        1.6914950000     2.8100330000     0.4506240000 
 H        2.7904420000     2.9752970000    -0.9070750000 
 H        3.3344880000     3.4331390000     0.7254330000 
 H        2.1486960000     0.9356830000     2.2204660000 
 H        3.7396520000     1.6863300000     2.4562540000 
 H        3.6296560000    -0.0300290000     2.0518660000 
 H        4.7424990000     1.6316560000    -0.8236810000 
*
