! RI PBE def2-SVP def2-SVP/J NBO PAL2
% maxcore 2000
% output
    # printlevel mini
    print[ P_Basis ] 0
    print[ P_SCFInfo ] 1
    print[ P_SCFIterInfo ] 1
    print[ P_OrbEn ] 0
    print[ P_Cartesian ] 0
end
*xyz 0 1
 C        1.0615370000     0.0348620000    -0.0861380000 
 C        2.5601610000     0.0591210000     0.0017780000 
 O        3.1645920000     0.6149990000     0.8875770000 
 C        3.2602060000    -0.6379760000    -1.0597150000 
 C        3.8320600000    -1.2288310000    -1.9418690000 
 C        4.5779380000    -1.8934050000    -3.0002590000 
 O        5.9360760000    -2.1013360000    -2.6963250000 
 H        0.6373350000     0.5914710000     0.7478340000 
 H        0.7057650000    -0.9987470000    -0.0695070000 
 H        0.7366910000     0.4696390000    -1.0350630000 
 H        4.4520620000    -1.3113630000    -3.9251050000 
 H        4.1471400000    -2.8809120000    -3.1867860000 
 H        6.3061150000    -1.2738220000    -2.3760030000 
*
