! RI PBE def2-SVP def2-SVP/J NBO PAL2
% maxcore 2000
% output
    # printlevel mini
    print[ P_Basis ] 0
    print[ P_SCFInfo ] 1
    print[ P_SCFIterInfo ] 1
    print[ P_OrbEn ] 0
    print[ P_Cartesian ] 0
end
*xyz 0 1
 C        0.9280840000     0.0166780000    -0.0006280000 
 C        2.4206720000     0.1414590000     0.0245350000 
 O        3.0465170000     0.6211650000     0.9362680000 
 C        3.1122630000    -0.3616750000    -1.1533000000 
 C        3.6803800000    -0.7595650000    -2.1420210000 
 C        4.3838030000    -1.2799330000    -3.2883180000 
 O        4.5294050000    -0.6718150000    -4.3150950000 
 H        0.5145010000     0.4171640000     0.9233470000 
 H        0.6430810000    -1.0322590000    -0.1188500000 
 H        0.5250200000     0.5571150000    -0.8613240000 
 H        4.7861740000    -2.3009340000    -3.1484140000 
*
