! RI PBE def2-SVP def2-SVP/J NBO PAL2
% maxcore 2000
% output
    # printlevel mini
    print[ P_Basis ] 0
    print[ P_SCFInfo ] 1
    print[ P_SCFIterInfo ] 1
    print[ P_OrbEn ] 0
    print[ P_Cartesian ] 0
end
*xyz 0 1
 C        2.4438190000    -1.4201340000    -1.2450620000 
 C        2.6972770000    -0.0652360000    -0.6562750000 
 O        2.3509380000     0.9606490000    -1.1846410000 
 C        3.4751940000    -0.0425060000     0.6543310000 
 C        4.9580910000     0.0285650000     0.3085890000 
 C        5.5298500000     1.4052510000     0.1520590000 
 O        5.6000800000    -0.9769990000     0.1405230000 
 H        2.0359170000    -1.3271920000    -2.2497400000 
 H        1.7365270000    -1.9626920000    -0.6100930000 
 H        3.3700810000    -2.0015830000    -1.2530900000 
 H        3.3039080000    -0.9559750000     1.2241080000 
 H        3.1645900000     0.8378790000     1.2172040000 
 H        4.8818340000     2.0061710000    -0.4922110000 
 H        6.5386040000     1.3535360000    -0.2531000000 
 H        5.5506600000     1.9003460000     1.1278890000 
*
