! RI PBE def2-SVP def2-SVP/J NBO PAL2
% maxcore 2000
% output
    # printlevel mini
    print[ P_Basis ] 0
    print[ P_SCFInfo ] 1
    print[ P_SCFIterInfo ] 1
    print[ P_OrbEn ] 0
    print[ P_Cartesian ] 0
end
*xyz 0 1
 C        1.1690510000     0.0373900000    -0.7103610000 
 C        2.5585830000    -0.3996900000    -0.3467890000 
 O        3.0379670000    -1.4281770000    -0.7551940000 
 C        3.3302540000     0.5177230000     0.5817740000 
 C        4.8243690000     0.3104530000     0.4896550000 
 C        5.4085170000     0.8433610000    -0.7844170000 
 O        4.7810220000     1.4242000000    -1.6276970000 
 H        0.6311550000    -0.7749920000    -1.1955660000 
 H        1.2430860000     0.8850750000    -1.3987480000 
 H        0.6217040000     0.3862080000     0.1693130000 
 H        2.9748410000     0.3052500000     1.5972710000 
 H        3.0623080000     1.5557590000     0.3695890000 
 H        5.0746110000    -0.7549970000     0.5425810000 
 H        5.3582550000     0.7888980000     1.3198470000 
 H        6.4989760000     0.6731480000    -0.9102480000 
*
