! RI PBE def2-SVP def2-SVP/J NBO PAL2
% maxcore 2000
% output
    # printlevel mini
    print[ P_Basis ] 0
    print[ P_SCFInfo ] 1
    print[ P_SCFIterInfo ] 1
    print[ P_OrbEn ] 0
    print[ P_Cartesian ] 0
end
*xyz 0 1
 C        0.9789610000    -0.0902170000    -0.1033790000 
 C        2.4808950000    -0.0726910000    -0.3115170000 
 O        2.8054750000     0.1256040000    -1.6803960000 
 C        3.1657140000     0.9555970000     0.5795950000 
 C        4.6835270000     0.9770520000     0.4589280000 
 C        5.3718980000    -0.2308740000     1.0693360000 
 O        5.0999760000    -0.3926800000     2.4488690000 
 H        0.5109750000    -0.8213840000    -0.7649060000 
 H        0.5477180000     0.8938480000    -0.3185820000 
 H        0.7271190000    -0.3442980000     0.9289570000 
 H        2.8765280000    -1.0679190000    -0.0850080000 
 H        2.4187330000     0.9620820000    -1.9568800000 
 H        2.8857670000     0.7635940000     1.6202090000 
 H        2.7637560000     1.9458290000     0.3272120000 
 H        5.0734440000     1.8822330000     0.9414420000 
 H        4.9663550000     1.0419880000    -0.5966870000 
 H        6.4537020000    -0.1662470000     0.8906660000 
 H        5.0274100000    -1.1525680000     0.5946620000 
 H        5.4436570000     0.3746330000     2.9137880000 
*
