! RI PBE def2-SVP def2-SVP/J NBO PAL2
% maxcore 2000
% output
    # printlevel mini
    print[ P_Basis ] 0
    print[ P_SCFInfo ] 1
    print[ P_SCFIterInfo ] 1
    print[ P_OrbEn ] 0
    print[ P_Cartesian ] 0
end
*xyz 0 1
 C        0.9687850000     0.5389980000     0.0321660000 
 C        2.3926040000     0.0243520000     0.0761050000 
 O        3.1820090000     0.7309950000     1.0206600000 
 C        2.5276110000    -1.4471940000     0.3198900000 
 C        1.5497810000    -2.3514280000     0.3797330000 
 C        1.8554440000    -3.7593000000     0.6431310000 
 O        1.0301700000    -4.6348380000     0.7084310000 
 H        0.9787850000     1.6174470000    -0.1289160000 
 H        0.4479070000     0.3344490000     0.9720670000 
 H        0.4019580000     0.0752510000    -0.7779000000 
 H        2.8749650000     0.2375410000    -0.8862900000 
 H        2.8078140000     0.5787080000     1.8940480000 
 H        3.5541930000    -1.7776490000     0.4771040000 
 H        0.5038180000    -2.0993180000     0.2371090000 
 H        2.9361640000    -3.9796140000     0.7862730000 
*
