! RI PBE def2-SVP def2-SVP/J NBO PAL2
% maxcore 2000
% output
    # printlevel mini
    print[ P_Basis ] 0
    print[ P_SCFInfo ] 1
    print[ P_SCFIterInfo ] 1
    print[ P_OrbEn ] 0
    print[ P_Cartesian ] 0
end
*xyz 0 1
 C        1.0343720000    -0.2011420000     0.3726380000 
 C        2.3779890000     0.1020330000    -0.2445030000 
 O        2.9661320000    -1.1297530000    -0.6111450000 
 C        2.3219620000     1.0311830000    -1.4357080000 
 C        1.2414060000     1.6575290000    -1.9001670000 
 C        3.5906320000     1.2782490000    -2.1429530000 
 O        4.6449240000     0.7617250000    -1.8551060000 
 H        1.1745980000    -0.8861090000     1.2093730000 
 H        0.3761320000    -0.6830840000    -0.3537770000 
 H        0.5528540000     0.7044270000     0.7466390000 
 H        3.0078370000     0.5998110000     0.5106650000 
 H        3.8523620000    -0.9251330000    -0.9357910000 
 H        0.2616600000     1.5439040000    -1.4529930000 
 H        1.3153390000     2.3142330000    -2.7620320000 
 H        3.5250900000     1.9936270000    -2.9886220000 
*
