! RI PBE def2-SVP def2-SVP/J NBO PAL2
% maxcore 2000
% output
    # printlevel mini
    print[ P_Basis ] 0
    print[ P_SCFInfo ] 1
    print[ P_SCFIterInfo ] 1
    print[ P_OrbEn ] 0
    print[ P_Cartesian ] 0
end
*xyz 0 1
 C        1.2409380000     0.3140700000     0.0519730000 
 C        2.7396040000     0.3176630000    -0.1754400000 
 O        3.4160050000     0.4413550000     1.0791050000 
 C        3.2569660000    -0.8817810000    -0.9747920000 
 C        2.5688330000    -0.9890200000    -2.3301090000 
 C        4.7698110000    -0.8121660000    -1.1810320000 
 O        5.5281140000    -0.9510110000    -0.0069970000 
 H        0.9643500000     1.1519610000     0.6945370000 
 H        0.9236300000    -0.6149790000     0.5389570000 
 H        0.6876530000     0.4064000000    -0.8832920000 
 H        3.0171380000     1.2300200000    -0.7169820000 
 H        3.0787410000    -0.2450320000     1.6638600000 
 H        3.0455090000    -1.7913390000    -0.3939910000 
 H        2.6862560000    -0.0652170000    -2.9058580000 
 H        1.5009530000    -1.1895770000    -2.2360020000 
 H        3.0046060000    -1.7998440000    -2.9183350000 
 H        5.0107150000     0.1308430000    -1.7009070000 
 H        5.0749380000    -1.6260720000    -1.8450560000 
 H        5.1555410000    -0.3229850000     0.6257510000 
*
