! RI PBE def2-SVP def2-SVP/J NBO PAL2
% maxcore 2000
% output
    # printlevel mini
    print[ P_Basis ] 0
    print[ P_SCFInfo ] 1
    print[ P_SCFIterInfo ] 1
    print[ P_OrbEn ] 0
    print[ P_Cartesian ] 0
end
*xyz 0 1
 C        3.6669450000     0.7944790000    -0.8449090000 
 C        3.0761340000    -0.5392800000    -0.4182800000 
 O        3.4392670000    -1.5827940000    -1.2961190000 
 C        3.4033900000    -0.8967490000     1.0368070000 
 C        2.5867350000    -2.0900200000     1.5397040000 
 C        4.8563160000    -1.2042770000     1.2702150000 
 O        5.6856830000    -1.3832210000     0.4150610000 
 H        3.3819020000     1.0059740000    -1.8767040000 
 H        4.7575320000     0.7811410000    -0.7885270000 
 H        3.2985620000     1.6081520000    -0.2139760000 
 H        1.9849960000    -0.4715210000    -0.4936640000 
 H        4.3964190000    -1.6817620000    -1.2152140000 
 H        3.1727370000    -0.0340320000     1.6777110000 
 H        2.7161750000    -2.9394820000     0.8672860000 
 H        1.5262100000    -1.8335660000     1.5678530000 
 H        2.8853170000    -2.3925710000     2.5467760000 
 H        5.1410810000    -1.2976680000     2.3413990000 
*
