! RI PBE def2-SVP def2-SVP/J NBO PAL2
% maxcore 2000
% output
    # printlevel mini
    print[ P_Basis ] 0
    print[ P_SCFInfo ] 1
    print[ P_SCFIterInfo ] 1
    print[ P_OrbEn ] 0
    print[ P_Cartesian ] 0
end
*xyz 0 1
 C        0.8709460000    -0.0228770000     0.1071750000 
 C        2.3794670000     0.0601740000    -0.0838450000 
 O        3.0321580000     0.5342120000     1.0811170000 
 C        2.9269590000    -1.2190480000    -0.5352920000 
 C        3.3599120000    -2.2822080000    -0.8982570000 
 C        3.8889800000    -3.5753710000    -1.3131060000 
 O        2.9521910000    -4.6284500000    -1.2289000000 
 H        0.4940660000     0.9483920000     0.4310400000 
 H        0.6230470000    -0.7682590000     0.8668890000 
 H        0.3762090000    -0.3078470000    -0.8232330000 
 H        2.5978790000     0.8139540000    -0.8473740000 
 H        3.0107590000    -0.1677010000     1.7383490000 
 H        4.7902030000    -3.7952560000    -0.7237150000 
 H        4.1972740000    -3.5273060000    -2.3606750000 
 H        2.5635510000    -4.6107090000    -0.3502730000 
*
