! RI PBE def2-SVP def2-SVP/J NBO PAL2
% maxcore 2000
% output
    # printlevel mini
    print[ P_Basis ] 0
    print[ P_SCFInfo ] 1
    print[ P_SCFIterInfo ] 1
    print[ P_OrbEn ] 0
    print[ P_Cartesian ] 0
end
*xyz 0 1
 C        1.0545600000    -0.0038500000     0.0109790000 
 C        2.5740050000     0.0880360000     0.0813780000 
 O        3.0428060000     1.4039350000    -0.1269540000 
 C        3.0725100000    -0.4812700000     1.3315640000 
 C        3.4533690000    -0.9572850000     2.3728070000 
 C        3.9456420000    -1.4756060000     3.6211070000 
 O        3.7857970000    -2.6094100000     3.9941670000 
 H        0.7173920000     0.4101470000    -0.9400630000 
 H        0.5981810000     0.5633400000     0.8257670000 
 H        0.7227620000    -1.0404040000     0.0900650000 
 H        3.0027750000    -0.4958050000    -0.7402070000 
 H        2.7531110000     1.9487580000     0.6112960000 
 H        4.4988790000    -0.7386960000     4.2344850000 
*
