! RI PBE def2-SVP def2-SVP/J NBO PAL2
% maxcore 2000
% output
    # printlevel mini
    print[ P_Basis ] 0
    print[ P_SCFInfo ] 1
    print[ P_SCFIterInfo ] 1
    print[ P_OrbEn ] 0
    print[ P_Cartesian ] 0
end
*xyz 0 1
 C        1.7655060000     1.2659940000    -0.1673980000 
 C        3.1920750000     0.7866070000    -0.3430250000 
 O        4.0941900000     1.6063690000     0.4051030000 
 C        3.3509700000    -0.6860570000     0.0092100000 
 C        4.7567010000    -1.2623390000    -0.1674210000 
 C        5.2781800000    -1.1622910000    -1.5926800000 
 O        5.6716960000    -0.6951150000     0.7497930000 
 H        1.6858030000     2.3270300000    -0.4109470000 
 H        1.4344020000     1.1218150000     0.8667820000 
 H        1.0822430000     0.7099440000    -0.8132040000 
 H        3.4915410000     0.9465100000    -1.3827850000 
 H        3.7807150000     1.6336130000     1.3150900000 
 H        2.6504210000    -1.2641010000    -0.6037850000 
 H        3.0504070000    -0.8347170000     1.0540410000 
 H        4.7053210000    -2.3232980000     0.1009520000 
 H        5.4143070000    -0.1207230000    -1.8947680000 
 H        4.5973270000    -1.6402800000    -2.3030530000 
 H        6.2491890000    -1.6551710000    -1.6613780000 
 H        5.5654050000     0.2627090000     0.6783720000 
*
