! RI PBE def2-SVP def2-SVP/J NBO PAL2
% maxcore 2000
% output
    # printlevel mini
    print[ P_Basis ] 0
    print[ P_SCFInfo ] 1
    print[ P_SCFIterInfo ] 1
    print[ P_OrbEn ] 0
    print[ P_Cartesian ] 0
end
*xyz 0 1
 C        3.2121170000     1.8121930000     0.0868080000 
 C        2.6942880000     0.4086230000    -0.1882260000 
 O        2.8578510000     0.0404410000    -1.5390760000 
 C        3.3065560000    -0.6363360000     0.7434860000 
 C        4.7855010000    -0.8760000000     0.5538100000 
 C        5.5049480000    -1.5582700000     1.6826210000 
 O        5.3671290000    -0.5536420000    -0.4589200000 
 H        2.7335480000     2.5172550000    -0.5946110000 
 H        4.2921120000     1.8709920000    -0.0668300000 
 H        2.9901160000     2.1215410000     1.1122150000 
 H        1.6127590000     0.4031140000    -0.0163350000 
 H        3.8097390000    -0.0691620000    -1.6687010000 
 H        2.8195230000    -1.6042370000     0.5643930000 
 H        3.1113630000    -0.3921050000     1.7931240000 
 H        5.5907970000    -0.8619080000     2.5228710000 
 H        6.5003110000    -1.8650460000     1.3664290000 
 H        4.9363400000    -2.4195520000     2.0425220000 
*
