! RI PBE def2-SVP def2-SVP/J NBO PAL2
% maxcore 2000
% output
    # printlevel mini
    print[ P_Basis ] 0
    print[ P_SCFInfo ] 1
    print[ P_SCFIterInfo ] 1
    print[ P_OrbEn ] 0
    print[ P_Cartesian ] 0
end
*xyz 0 1
 C        1.0128140000    -0.0269890000     0.0069780000 
 C        2.5253930000    -0.0631210000     0.1285790000 
 O        3.0853180000    -1.0561790000    -0.7077000000 
 C        3.1396760000     1.3091650000    -0.1246930000 
 C        4.6583260000     1.3041620000    -0.1631500000 
 C        5.2640220000     0.9340510000    -1.4823750000 
 O        4.6500420000     0.6370620000    -2.4738340000 
 H        0.5976960000    -1.0181320000     0.1958450000 
 H        0.7174280000     0.2804300000    -1.0005210000 
 H        0.5730600000     0.6755830000     0.7203630000 
 H        2.7889730000    -0.3753880000     1.1473140000 
 H        3.2006210000    -0.6798570000    -1.5886370000 
 H        2.7943660000     1.9916280000     0.6567810000 
 H        2.7598030000     1.7021910000    -1.0747600000 
 H        5.0846260000     0.6231330000     0.5856580000 
 H        5.0721630000     2.2904890000     0.0864050000 
 H        6.3738730000     0.9688620000    -1.5085640000 
*
