! RI PBE def2-SVP def2-SVP/J NBO PAL2
% maxcore 2000
% output
    # printlevel mini
    print[ P_Basis ] 0
    print[ P_SCFInfo ] 1
    print[ P_SCFIterInfo ] 1
    print[ P_OrbEn ] 0
    print[ P_Cartesian ] 0
end
*xyz 0 1
 C        0.7110670000     0.7542210000     0.5202790000 
 C        2.0269700000     0.6436740000    -0.2215230000 
 O        2.0731760000    -0.4576810000    -1.1091310000 
 C        2.3740170000    -1.6739560000    -0.6105480000 
 C        2.6350420000    -2.0179520000     0.6458080000 
 C        2.3094790000     1.8703550000    -1.0660170000 
 O        2.1081000000     2.9905050000    -0.6940040000 
 H        0.5580750000    -0.0994130000     1.1797570000 
 H       -0.1158270000     0.7988020000    -0.1908690000 
 H        0.7080440000     1.6708020000     1.1111550000 
 H        2.8644500000     0.5714090000     0.4894570000 
 H        2.3895670000    -2.4038120000    -1.4128570000 
 H        2.6152900000    -1.3299130000     1.4799530000 
 H        2.8810980000    -3.0493540000     0.8555900000 
 H        2.7425410000     1.6467230000    -2.0635500000 
*
