! RI PBE def2-SVP def2-SVP/J NBO PAL2
% maxcore 2000
% output
    # printlevel mini
    print[ P_Basis ] 0
    print[ P_SCFInfo ] 1
    print[ P_SCFIterInfo ] 1
    print[ P_OrbEn ] 0
    print[ P_Cartesian ] 0
end
*xyz 0 1
 C        0.8249170000     1.2832350000     2.0653860000 
 C        2.2529970000     1.7277140000     2.2421340000 
 O        2.9729660000     1.3811950000     1.0719570000 
 C        4.2774320000     1.6922780000     1.0409880000 
 C        5.0139910000     2.2897910000     1.9792980000 
 C        6.4620140000     2.5669860000     1.7641400000 
 O        6.7626940000     3.9535090000     1.7649460000 
 H        0.2423780000     1.5384200000     2.9530030000 
 H        0.7710440000     0.2033420000     1.9166750000 
 H        0.3706110000     1.7733290000     1.2024600000 
 H        2.7163730000     1.2401280000     3.1089850000 
 H        2.3148160000     2.8121980000     2.3970150000 
 H        4.7203230000     1.3766950000     0.1001390000 
 H        4.5839170000     2.6151370000     2.9200210000 
 H        6.7957390000     2.0916590000     0.8306630000 
 H        7.0643930000     2.1471280000     2.5745320000 
 H        6.1536930000     4.3770650000     1.1535460000 
*
