! RI PBE def2-SVP def2-SVP/J NBO PAL2
% maxcore 2000
% output
    # printlevel mini
    print[ P_Basis ] 0
    print[ P_SCFInfo ] 1
    print[ P_SCFIterInfo ] 1
    print[ P_OrbEn ] 0
    print[ P_Cartesian ] 0
end
*xyz 0 1
 C        1.3650410000     0.6757860000     0.4450740000 
 C        2.6290950000     0.2261280000    -0.2357910000 
 O        3.5188830000    -0.2688280000     0.7633070000 
 C        4.6994830000    -0.7175160000     0.3660090000 
 C        5.1994930000    -0.7775000000    -0.8795560000 
 C        6.5330420000    -1.3160690000    -1.0652310000 
 O        7.0955580000    -1.4242670000    -2.1292580000 
 H        0.6633840000     1.0606120000    -0.2975480000 
 H        1.5723280000     1.4686060000     1.1656790000 
 H        0.8894660000    -0.1544460000     0.9698070000 
 H        3.1165020000     1.0528160000    -0.7643580000 
 H        2.4329420000    -0.5718460000    -0.9604450000 
 H        5.2879160000    -1.0670340000     1.2108260000 
 H        4.6626770000    -0.4455270000    -1.7589650000 
 H        7.0357920000    -1.6409160000    -0.1261520000 
*
