! RI PBE def2-SVP def2-SVP/J NBO PAL2
% maxcore 2000
% output
    # printlevel mini
    print[ P_Basis ] 0
    print[ P_SCFInfo ] 1
    print[ P_SCFIterInfo ] 1
    print[ P_OrbEn ] 0
    print[ P_Cartesian ] 0
end
*xyz 0 1
 C        2.4337130000    -0.8474080000     0.1769480000 
 C        3.4311800000    -0.6794140000    -0.9383870000 
 O        4.6618930000    -1.2436940000    -0.5249970000 
 C        5.6861630000    -1.1884350000    -1.3984620000 
 C        5.6941750000    -0.6626500000    -2.6238330000 
 C        6.9005950000    -1.8211110000    -0.8146610000 
 O        7.9582650000    -1.9110120000    -1.3757070000 
 H        1.4728730000    -0.4196360000    -0.1161950000 
 H        2.7745570000    -0.3407180000     1.0814890000 
 H        2.2843260000    -1.9036100000     0.4076560000 
 H        3.5841530000     0.3804810000    -1.1790410000 
 H        3.0936540000    -1.1832260000    -1.8532330000 
 H        4.8349770000    -0.1953450000    -3.0825440000 
 H        6.6204390000    -0.7134250000    -3.1800470000 
 H        6.7454470000    -2.2145190000     0.2107120000 
*
