! RI PBE def2-SVP def2-SVP/J NBO PAL2
% maxcore 2000
% output
    # printlevel mini
    print[ P_Basis ] 0
    print[ P_SCFInfo ] 1
    print[ P_SCFIterInfo ] 1
    print[ P_OrbEn ] 0
    print[ P_Cartesian ] 0
end
*xyz 0 1
 C        1.2093210000    -0.5312690000     1.1169620000 
 C        2.6145000000    -0.2050060000     0.6778450000 
 O        3.4481770000    -1.2996310000     0.9814300000 
 C        4.7857230000    -1.1794230000     0.5257780000 
 C        5.6217010000    -0.2783180000     1.4133710000 
 C        5.3274590000    -2.5949320000     0.4881910000 
 O        4.5515420000    -3.4323750000    -0.3293780000 
 H        0.5406100000     0.3036390000     0.8966910000 
 H        1.1770280000    -0.7245350000     2.1909010000 
 H        0.8367220000    -1.4165660000     0.5976030000 
 H        2.9676480000     0.7016570000     1.1877890000 
 H        2.6463950000    -0.0049920000    -0.4036550000 
 H        4.7717570000    -0.7887110000    -0.5035290000 
 H        5.6334760000    -0.6584550000     2.4376940000 
 H        5.2352440000     0.7420750000     1.4312890000 
 H        6.6508310000    -0.2335320000     1.0484170000 
 H        5.3788680000    -2.9792580000     1.5181760000 
 H        6.3410410000    -2.5896820000     0.0803320000 
 H        3.6379660000    -3.2891960000    -0.0587180000 
*
