! RI PBE def2-SVP def2-SVP/J NBO PAL2
% maxcore 2000
% output
    # printlevel mini
    print[ P_Basis ] 0
    print[ P_SCFInfo ] 1
    print[ P_SCFIterInfo ] 1
    print[ P_OrbEn ] 0
    print[ P_Cartesian ] 0
end
*xyz 0 1
 C        0.9190280000     2.0150820000    -0.0329180000 
 C        2.3315110000     2.0239810000     0.4906950000 
 O        3.1886780000     1.5115640000    -0.5091520000 
 C        4.5377440000     1.4829120000    -0.1231670000 
 C        5.3047770000     0.6526600000    -1.1355770000 
 C        5.1213340000     2.8832590000    -0.1033930000 
 O        6.0329750000     3.2300930000     0.5929270000 
 H        0.2323520000     2.3973090000     0.7252410000 
 H        0.6142100000     1.0004380000    -0.2959140000 
 H        0.8336600000     2.6406730000    -0.9233390000 
 H        2.4157400000     1.4072890000     1.3977130000 
 H        2.6319480000     3.0458580000     0.7677920000 
 H        4.6528360000     1.0524190000     0.8822720000 
 H        5.2244280000     1.0941000000    -2.1317170000 
 H        4.8867400000    -0.3542760000    -1.1725810000 
 H        6.3580390000     0.5939740000    -0.8579270000 
 H        4.6469110000     3.5755940000    -0.8363650000 
*
