! RI PBE def2-SVP def2-SVP/J NBO PAL2
% maxcore 2000
% output
    # printlevel mini
    print[ P_Basis ] 0
    print[ P_SCFInfo ] 1
    print[ P_SCFIterInfo ] 1
    print[ P_OrbEn ] 0
    print[ P_Cartesian ] 0
end
*xyz 0 1
 C        0.9527890000    -1.2983570000     0.8470790000 
 C        2.3931860000    -0.9620420000     0.5574170000 
 O        3.2169860000    -1.9720520000     1.0883060000 
 C        4.5866720000    -1.7518100000     0.8564450000 
 C        5.3501800000    -2.9584830000     1.3689190000 
 C        5.2372780000    -3.1258530000     2.8742080000 
 O        4.9290020000    -4.1219090000     0.6847000000 
 H        0.2961500000    -0.5220170000     0.4486310000 
 H        0.7833510000    -1.3742340000     1.9228610000 
 H        0.6776000000    -2.2498050000     0.3875500000 
 H        2.6608340000     0.0073830000     1.0046210000 
 H        2.5619570000    -0.8760350000    -0.5267370000 
 H        4.9242890000    -0.8362360000     1.3654250000 
 H        4.7721050000    -1.6343680000    -0.2210570000 
 H        6.4022640000    -2.8209220000     1.0979620000 
 H        4.1913790000    -3.2293820000     3.1709850000 
 H        5.6567730000    -2.2628560000     3.3984240000 
 H        5.7787980000    -4.0192950000     3.1883550000 
 H        3.9667980000    -4.1314280000     0.7320860000 
*
