! RI PBE def2-SVP def2-SVP/J NBO PAL2
% maxcore 2000
% output
    # printlevel mini
    print[ P_Basis ] 0
    print[ P_SCFInfo ] 1
    print[ P_SCFIterInfo ] 1
    print[ P_OrbEn ] 0
    print[ P_Cartesian ] 0
end
*xyz 0 1
 C        1.2773300000     0.2633280000     0.5424450000 
 C        2.7600640000     0.5301700000     0.5623010000 
 O        3.0572560000     1.3879330000     1.6404510000 
 C        4.4184690000     1.6874350000     1.7321950000 
 C        4.7197470000     2.6119100000     2.8965450000 
 C        3.5757560000     3.0601280000     3.7529230000 
 O        5.8608770000     2.9500180000     3.0892240000 
 H        1.0245880000    -0.4004330000    -0.2870040000 
 H        0.7194030000     1.1937910000     0.4213280000 
 H        0.9580630000    -0.2106880000     1.4725450000 
 H        3.0841160000     0.9947870000    -0.3813860000 
 H        3.3227660000    -0.4096000000     0.6701070000 
 H        4.7876740000     2.1797060000     0.8192550000 
 H        5.0250360000     0.7790230000     1.8699620000 
 H        2.8315740000     3.5759340000     3.1408110000 
 H        3.9446170000     3.7133450000     4.5411400000 
 H        3.0656650000     2.1920210000     4.1780380000 
*
