! RI PBE def2-SVP def2-SVP/J NBO PAL2
% maxcore 2000
% output
    # printlevel mini
    print[ P_Basis ] 0
    print[ P_SCFInfo ] 1
    print[ P_SCFIterInfo ] 1
    print[ P_OrbEn ] 0
    print[ P_Cartesian ] 0
end
*xyz 0 1
 C        1.7482320000    -1.2336810000     0.5754520000 
 C        2.9978740000    -0.6447220000    -0.0266790000 
 O        3.4563640000    -1.4954730000    -1.0515820000 
 C        4.6270260000    -1.0286500000    -1.6669920000 
 C        5.0099830000    -1.9878760000    -2.7766950000 
 C        4.0385210000    -1.9808400000    -3.9228440000 
 O        4.3612380000    -2.0368690000    -5.0785340000 
 H        1.3742270000    -0.5903520000     1.3746680000 
 H        1.9506840000    -2.2214670000     0.9936060000 
 H        0.9668320000    -1.3341140000    -0.1802240000 
 H        3.7810110000    -0.5308010000     0.7385080000 
 H        2.7966710000     0.3570710000    -0.4359040000 
 H        5.4460900000    -0.9606690000    -0.9355810000 
 H        4.4696530000    -0.0149210000    -2.0690840000 
 H        5.0214020000    -3.0030760000    -2.3606600000 
 H        6.0082470000    -1.7714170000    -3.1622410000 
 H        2.9683440000    -1.9237430000    -3.6342050000 
*
