! RI PBE def2-SVP def2-SVP/J NBO PAL2
% maxcore 2000
% output
    # printlevel mini
    print[ P_Basis ] 0
    print[ P_SCFInfo ] 1
    print[ P_SCFIterInfo ] 1
    print[ P_OrbEn ] 0
    print[ P_Cartesian ] 0
end
*xyz 0 1
 C        2.4005380000    -1.6006480000    -4.5898440000 
 C        3.6800910000    -1.8200800000    -3.8254040000 
 O        3.5364550000    -1.2434070000    -2.5469410000 
 C        4.5958550000    -1.3404770000    -1.7046570000 
 C        5.7655790000    -1.9297490000    -1.9663010000 
 O        6.8232230000    -2.0244720000    -1.1200070000 
 C        6.6662740000    -1.4464650000     0.1485360000 
 H        2.4800060000    -2.0372560000    -5.5876750000 
 H        2.1918430000    -0.5344790000    -4.6954590000 
 H        1.5584950000    -2.0671320000    -4.0752750000 
 H        4.5318110000    -1.3577580000    -4.3441040000 
 H        3.8975330000    -2.8926720000    -3.7230120000 
 H        4.3781810000    -0.8670520000    -0.7568210000 
 H        5.9879620000    -2.4042910000    -2.9121220000 
 H        7.5981940000    -1.6140840000     0.6863670000 
 H        5.8398760000    -1.9125760000     0.6996130000 
 H        6.4782750000    -0.3679930000     0.0748170000 
*
