! RI PBE def2-SVP def2-SVP/J NBO PAL2
% maxcore 2000
% output
    # printlevel mini
    print[ P_Basis ] 0
    print[ P_SCFInfo ] 1
    print[ P_SCFIterInfo ] 1
    print[ P_OrbEn ] 0
    print[ P_Cartesian ] 0
end
*xyz 0 1
 C        0.9026330000     0.7089810000    -1.8678200000 
 C        2.3995700000     0.6971070000    -2.0415730000 
 O        2.9385970000    -0.3340020000    -1.2357520000 
 C        4.3280310000    -0.4076330000    -1.2755480000 
 O        4.8397580000    -0.8402670000    -2.4955800000 
 C        4.5716640000    -2.2015390000    -2.7751300000 
 C        5.2228800000    -2.5594270000    -4.0862320000 
 H        0.4579530000     1.5029330000    -2.4718720000 
 H        0.6357920000     0.8782310000    -0.8227970000 
 H        0.4703540000    -0.2435630000    -2.1808660000 
 H        2.8340590000     1.6610420000    -1.7367670000 
 H        2.6697330000     0.5343660000    -3.0915410000 
 H        4.6083800000    -1.0973460000    -0.4690850000 
 H        4.7754030000     0.5797480000    -1.1034450000 
 H        3.4893500000    -2.3710050000    -2.8173740000 
 H        4.9696490000    -2.8249040000    -1.9603420000 
 H        4.8198650000    -1.9485900000    -4.8965770000 
 H        5.0409920000    -3.6096690000    -4.3247380000 
 H        6.3014270000    -2.3966750000    -4.0396400000 
*
