! RI PBE def2-SVP def2-SVP/J NBO PAL2
% maxcore 2000
% output
    # printlevel mini
    print[ P_Basis ] 0
    print[ P_SCFInfo ] 1
    print[ P_SCFIterInfo ] 1
    print[ P_OrbEn ] 0
    print[ P_Cartesian ] 0
end
*xyz 0 1
 C        0.9830970000     0.1752340000     0.3630070000 
 C        2.3133040000     0.2060220000     0.2978460000 
 O        3.2090870000    -0.5938310000     0.9906830000 
 C        2.8464610000    -1.5514060000     1.8607740000 
 O        1.7433580000    -1.8698630000     2.1778750000 
 C        3.0219180000     1.1153050000    -0.5385200000 
 C        3.6158390000     1.8835220000    -1.2449930000 
 H        0.4436010000    -0.5106000000     0.9939940000 
 H        0.4402530000     0.8787740000    -0.2533310000 
 H        3.7686630000    -2.0089710000     2.2456090000 
 H        4.1395110000     2.5658140000    -1.8723450000 
*
