! RI PBE def2-SVP def2-SVP/J NBO PAL2
% maxcore 2000
% output
    # printlevel mini
    print[ P_Basis ] 0
    print[ P_SCFInfo ] 1
    print[ P_SCFIterInfo ] 1
    print[ P_OrbEn ] 0
    print[ P_Cartesian ] 0
end
*xyz 0 1
 C        1.2077210000    -0.4757820000    -0.3375410000 
 C        2.4893510000    -0.2184450000    -0.1528460000 
 O        2.8735950000     0.6742660000     0.8204020000 
 C        4.1945290000     0.9025790000     0.9720090000 
 O        5.0640120000     0.3904690000     0.3270230000 
 C        4.4202190000     1.8581630000     2.0284640000 
 C        4.6647920000     2.6478470000     2.8969710000 
 H        0.9131110000    -1.1782590000    -1.1043170000 
 H        0.4395510000    -0.0012710000     0.2596360000 
 H        3.3044120000    -0.6569820000    -0.7132640000 
 H        4.8826980000     3.3495150000     3.6684630000 
*
