! RI PBE def2-SVP def2-SVP/J NBO PAL2
% maxcore 2000
% output
    # printlevel mini
    print[ P_Basis ] 0
    print[ P_SCFInfo ] 1
    print[ P_SCFIterInfo ] 1
    print[ P_OrbEn ] 0
    print[ P_Cartesian ] 0
end
*xyz 0 1
 C        3.8269990000     3.0214110000    -1.1797920000 
 C        3.2823730000     1.8129050000    -1.1755800000 
 O        3.2472480000     0.9120500000    -0.1597670000 
 C        3.9902210000     1.1871740000     0.9725130000 
 O        3.3135970000     2.1495930000     1.7430520000 
 C        3.8956470000     2.5022710000     2.9045760000 
 C        5.0388060000     2.0558450000     3.4174040000 
 H        3.7892030000     3.6004510000    -2.0919470000 
 H        4.2880360000     3.4727740000    -0.3120090000 
 H        2.7843420000     1.3995060000    -2.0449830000 
 H        4.9897680000     1.5592800000     0.7064130000 
 H        4.0675910000     0.2509050000     1.5334950000 
 H        3.2890980000     3.2414150000     3.4161050000 
 H        5.6690320000     1.3194630000     2.9377640000 
 H        5.3641680000     2.4456280000     4.3716440000 
*
