! RI PBE def2-SVP def2-SVP/J NBO PAL2
% maxcore 2000
% output
    # printlevel mini
    print[ P_Basis ] 0
    print[ P_SCFInfo ] 1
    print[ P_SCFIterInfo ] 1
    print[ P_OrbEn ] 0
    print[ P_Cartesian ] 0
end
*xyz 0 1
 C        2.9284710000     0.9930180000     1.0731700000 
 C        2.7050360000     0.1681660000    -0.1537100000 
 O        1.9861120000     0.5194840000    -1.0591220000 
 C        3.4157540000    -1.1822120000    -0.2678060000 
 O        3.0806890000    -1.7828210000    -1.4797700000 
 C        4.9020140000    -1.0286050000    -0.1381240000 
 C        5.6146820000    -1.4676710000     0.8880890000 
 H        2.1427220000     1.7408790000     1.1648090000 
 H        3.8948640000     1.4981590000     0.9875860000 
 H        2.9767930000     0.3707720000     1.9686850000 
 H        3.0512770000    -1.7874090000     0.5793830000 
 H        2.4560750000    -1.1703800000    -1.9036610000 
 H        5.3839750000    -0.5319510000    -0.9772750000 
 H        5.1497640000    -1.9917350000     1.7176400000 
 H        6.6884930000    -1.3297940000     0.9337960000 
*
