! RI PBE def2-SVP def2-SVP/J NBO PAL2
% maxcore 2000
% output
    # printlevel mini
    print[ P_Basis ] 0
    print[ P_SCFInfo ] 1
    print[ P_SCFIterInfo ] 1
    print[ P_OrbEn ] 0
    print[ P_Cartesian ] 0
end
*xyz 0 1
 C        1.6294850000    -0.8110790000     0.1938180000 
 C        2.0391870000     0.5545410000    -0.2480330000 
 O        1.5980620000     1.5720950000     0.2232670000 
 C        3.0768440000     0.6786230000    -1.3780190000 
 O        3.3454190000     2.0183970000    -1.6341560000 
 C        4.2796470000    -0.0859190000    -1.0521080000 
 C        5.2599830000    -0.7237420000    -0.7848390000 
 H        0.7123840000    -0.7532840000     0.7771180000 
 H        2.4267390000    -1.2333110000     0.8116790000 
 H        1.5026760000    -1.4796940000    -0.6601730000 
 H        2.6119610000     0.2111060000    -2.2631410000 
 H        2.8020360000     2.5087890000    -0.9938780000 
 H        6.1398760000    -1.2767130000    -0.5534450000 
*
