! RI PBE def2-SVP def2-SVP/J NBO PAL2
% maxcore 2000
% output
    # printlevel mini
    print[ P_Basis ] 0
    print[ P_SCFInfo ] 1
    print[ P_SCFIterInfo ] 1
    print[ P_OrbEn ] 0
    print[ P_Cartesian ] 0
end
*xyz 0 1
 C        2.8949080000    -1.5062300000    -0.2090210000 
 C        2.3147800000    -0.1260490000    -0.2245960000 
 O        1.1337090000     0.0966910000    -0.1404830000 
 C        3.2588560000     1.0541770000    -0.3526050000 
 O        4.5963410000     0.6315950000    -0.4394860000 
 C        5.5301150000     1.5974950000    -0.5549720000 
 C        5.3440380000     2.9123120000    -0.5987080000 
 H        2.0926500000    -2.2350300000    -0.1138600000 
 H        3.6036810000    -1.6058540000     0.6170770000 
 H        3.4675640000    -1.6829760000    -1.1230840000 
 H        3.1080220000     1.7046960000     0.5183590000 
 H        2.9683180000     1.6250440000    -1.2438200000 
 H        6.5183840000     1.1546860000    -0.6125340000 
 H        4.3727090000     3.3841650000    -0.5440110000 
 H        6.2090350000     3.5533890000    -0.6945770000 
*
