! RI PBE def2-SVP def2-SVP/J NBO PAL2
% maxcore 2000
% output
    # printlevel mini
    print[ P_Basis ] 0
    print[ P_SCFInfo ] 1
    print[ P_SCFIterInfo ] 1
    print[ P_OrbEn ] 0
    print[ P_Cartesian ] 0
end
*xyz 0 1
 C        0.9748890000     0.0371070000     0.0081680000 
 C        2.4913030000     0.0831260000    -0.0221310000 
 O        3.0525480000     0.2561090000     1.2737180000 
 C        3.0908720000    -1.2236900000    -0.5738120000 
 O        2.4460370000    -2.1538420000    -0.9593970000 
 C        2.9841410000     1.1627050000    -0.8707310000 
 C        3.3976130000     2.0021970000    -1.6212840000 
 H        0.6406160000    -0.8099010000     0.6122410000 
 H        0.5743200000    -0.0956100000    -0.9964360000 
 H        0.5902190000     0.9653130000     0.4305620000 
 H        2.5933230000    -0.3454060000     1.8691790000 
 H        4.1985520000    -1.2394590000    -0.5337970000 
 H        3.7600650000     2.7608520000    -2.2745810000 
*
