! RI PBE def2-SVP def2-SVP/J NBO PAL2
% maxcore 2000
% output
    # printlevel mini
    print[ P_Basis ] 0
    print[ P_SCFInfo ] 1
    print[ P_SCFIterInfo ] 1
    print[ P_OrbEn ] 0
    print[ P_Cartesian ] 0
end
*xyz 0 1
 C        1.0413660000     0.1159030000     0.0412740000 
 C        2.5566880000     0.0226010000     0.1714100000 
 O        3.1694440000     1.1856390000    -0.3715410000 
 C        2.9855680000     0.0366870000     1.6429110000 
 O        2.5572400000     1.1935790000     2.3116450000 
 C        3.0623610000    -1.2356540000    -0.4769830000 
 C        4.0613520000    -1.2967210000    -1.3447860000 
 H        0.6735760000     0.9868840000     0.5845450000 
 H        0.5584700000    -0.7749940000     0.4489840000 
 H        0.7527110000     0.1980420000    -1.0107470000 
 H        2.8131790000     1.3332810000    -1.2522320000 
 H        4.0785340000    -0.0635270000     1.6732850000 
 H        2.5497500000    -0.8188660000     2.1637070000 
 H        2.8730900000     1.9391340000     1.7897360000 
 H        2.5472240000    -2.1476250000    -0.1823090000 
 H        4.5993730000    -0.4043240000    -1.6447260000 
 H        4.3763750000    -2.2404170000    -1.7739950000 
*
