! RI PBE def2-SVP def2-SVP/J NBO PAL2
% maxcore 2000
% output
    # printlevel mini
    print[ P_Basis ] 0
    print[ P_SCFInfo ] 1
    print[ P_SCFIterInfo ] 1
    print[ P_OrbEn ] 0
    print[ P_Cartesian ] 0
end
*xyz 0 1
 C        0.7312060000    -0.2594790000     0.1892800000 
 C        2.2256640000    -0.0974980000    -0.0671650000 
 O        2.4967710000    -0.1386200000    -1.4335960000 
 C        2.7511950000     1.1975740000     0.5226740000 
 O        3.2182700000     2.0380540000    -0.2170490000 
 C        2.6779340000     1.3707160000     1.9896310000 
 C        3.0671980000     2.4996200000     2.5708640000 
 H        0.3929630000    -1.1836420000    -0.2807830000 
 H        0.1815030000     0.5724350000    -0.2557510000 
 H        0.4980970000    -0.3089700000     1.2548420000 
 H        2.7614080000    -0.9154870000     0.4434990000 
 H        2.9159830000     0.7127610000    -1.6384980000 
 H        2.3007840000     0.5393390000     2.5761440000 
 H        3.4426250000     3.3196420000     1.9679980000 
 H        3.0228000000     2.6329430000     3.6450800000 
*
