! RI PBE def2-SVP def2-SVP/J NBO PAL2
% maxcore 2000
% output
    # printlevel mini
    print[ P_Basis ] 0
    print[ P_SCFInfo ] 1
    print[ P_SCFIterInfo ] 1
    print[ P_OrbEn ] 0
    print[ P_Cartesian ] 0
end
*xyz 0 1
 C        1.0411370000    -0.0899840000    -0.1931040000 
 C        2.5414830000     0.0946070000    -0.0187480000 
 O        3.2872950000    -0.5026420000    -1.0488070000 
 C        2.8460150000     1.5800690000     0.1350280000 
 O        2.8024950000     2.1488380000     1.1959400000 
 C        3.1422170000     2.2862180000    -1.1028900000 
 C        3.3576300000     2.8474660000    -2.1440720000 
 H        0.8163970000    -1.1545510000    -0.2743730000 
 H        0.6920800000     0.4080780000    -1.1028330000 
 H        0.4971290000     0.3254750000     0.6571490000 
 H        2.8691910000    -0.3782170000     0.9098040000 
 H        3.0589190000    -0.0778150000    -1.8827340000 
 H        3.5561130000     3.3712590000    -3.0508610000 
*
