! RI PBE def2-SVP def2-SVP/J NBO PAL2
% maxcore 2000
% output
    # printlevel mini
    print[ P_Basis ] 0
    print[ P_SCFInfo ] 1
    print[ P_SCFIterInfo ] 1
    print[ P_OrbEn ] 0
    print[ P_Cartesian ] 0
end
*xyz 0 1
 C        3.6701410000     0.5782020000     1.3258870000 
 C        2.8957790000     0.1667300000     0.0920520000 
 O        2.8905420000     1.1827530000    -0.8987480000 
 C        3.3570060000    -1.1517440000    -0.5525220000 
 O        2.5262150000    -1.4302890000    -1.6503800000 
 C        4.8129730000    -1.1087660000    -0.9188790000 
 C        5.2768710000    -1.1332660000    -2.1604260000 
 H        3.2198130000     1.4687580000     1.7668640000 
 H        4.7106370000     0.8110520000     1.0852130000 
 H        3.6648240000    -0.2171020000     2.0760140000 
 H        1.8414700000     0.0311690000     0.3508690000 
 H        3.8017630000     1.3098550000    -1.1895180000 
 H        3.2046930000    -1.9568570000     0.1776410000 
 H        2.3204810000    -0.5760420000    -2.0514540000 
 H        5.5103510000    -1.0507480000    -0.0862860000 
 H        4.6027260000    -1.2286370000    -3.0039960000 
 H        6.3401150000    -1.0936590000    -2.3663290000 
*
