! RI PBE def2-SVP def2-SVP/J NBO PAL2
% maxcore 2000
% output
    # printlevel mini
    print[ P_Basis ] 0
    print[ P_SCFInfo ] 1
    print[ P_SCFIterInfo ] 1
    print[ P_OrbEn ] 0
    print[ P_Cartesian ] 0
end
*xyz 0 1
 C        2.4289580000    -1.5525360000     0.2325130000 
 C        2.2511220000    -0.0467070000     0.1531120000 
 O        2.7461770000     0.6003640000     1.3074680000 
 C        2.8675360000     0.5535360000    -1.0953240000 
 O        4.2647530000     0.3350350000    -1.0315120000 
 C        5.0136740000     0.8381410000    -2.0301900000 
 C        4.6043420000     1.5103180000    -3.1011930000 
 H        1.9720370000    -1.9297380000     1.1483890000 
 H        3.4887590000    -1.8173040000     0.2384010000 
 H        1.9598220000    -2.0501060000    -0.6204010000 
 H        1.1821240000     0.1889100000     0.1242870000 
 H        3.7061360000     0.5319500000     1.2795480000 
 H        2.6672040000     1.6306210000    -1.1290010000 
 H        2.4563320000     0.0878150000    -1.9997360000 
 H        6.0625860000     0.6201340000    -1.8588830000 
 H        3.5679140000     1.7437350000    -3.3015980000 
 H        5.3433930000     1.8459210000    -3.8150790000 
*
