! RI PBE def2-SVP def2-SVP/J NBO PAL2
% maxcore 2000
% output
    # printlevel mini
    print[ P_Basis ] 0
    print[ P_SCFInfo ] 1
    print[ P_SCFIterInfo ] 1
    print[ P_OrbEn ] 0
    print[ P_Cartesian ] 0
end
*xyz 0 1
 C        0.7989290000    -0.2035340000     0.0607800000 
 C        2.2833660000     0.0503250000    -0.1127310000 
 O        2.4744240000     1.0627990000    -1.1333440000 
 C        2.5334810000     0.6426710000    -2.3926240000 
 O        2.4386140000    -0.4886780000    -2.7723440000 
 C        2.9276470000     0.5739970000     1.1267620000 
 C        3.8573100000    -0.0799340000     1.8054300000 
 H        0.3626820000    -0.5656850000    -0.8712290000 
 H        0.2862770000     0.7127060000     0.3623130000 
 H        0.6415250000    -0.9577030000     0.8339180000 
 H        2.7836130000    -0.8610240000    -0.4464830000 
 H        2.6899390000     1.5093900000    -3.0522380000 
 H        2.5681100000     1.5396800000     1.4754950000 
 H        4.2318940000    -1.0420680000     1.4699210000 
 H        4.2763700000     0.3185490000     2.7218830000 
*
