! RI PBE def2-SVP def2-SVP/J NBO PAL2
% maxcore 2000
% output
    # printlevel mini
    print[ P_Basis ] 0
    print[ P_SCFInfo ] 1
    print[ P_SCFIterInfo ] 1
    print[ P_OrbEn ] 0
    print[ P_Cartesian ] 0
end
*xyz 0 1
 C        3.0208510000     1.6139850000    -0.2760330000 
 C        2.5530470000     0.5106290000     0.6417320000 
 O        3.1527030000     0.6151350000     1.9395530000 
 C        4.3579860000     0.0474640000     2.0929080000 
 O        4.9392610000    -0.5374410000     1.2181310000 
 C        4.8662730000     0.2415530000     3.4961050000 
 C        6.2210970000    -0.3929510000     3.7307210000 
 H        2.4958160000     1.5467460000    -1.2319740000 
 H        4.0909800000     1.5282960000    -0.4689260000 
 H        2.8154510000     2.5947700000     0.1578070000 
 H        2.7830270000    -0.4709840000     0.2240640000 
 H        1.4805350000     0.5786930000     0.8287010000 
 H        4.1089470000    -0.1595630000     4.1770340000 
 H        4.8868850000     1.3189320000     3.6891050000 
 H        6.1868800000    -1.4684190000     3.5513420000 
 H        6.5485840000    -0.2254160000     4.7584110000 
 H        6.9714660000     0.0243710000     3.0578280000 
*
