! RI PBE def2-SVP def2-SVP/J NBO PAL2
% maxcore 2000
% output
    # printlevel mini
    print[ P_Basis ] 0
    print[ P_SCFInfo ] 1
    print[ P_SCFIterInfo ] 1
    print[ P_OrbEn ] 0
    print[ P_Cartesian ] 0
end
*xyz 0 1
 C        0.9054520000     1.7294920000    -0.9908330000 
 C        2.3655860000     1.7441950000    -1.3603290000 
 O        3.1065700000     1.1895800000    -0.2844350000 
 C        4.4605970000     1.0778190000    -0.5317370000 
 O        5.1187280000     2.3187690000    -0.6282400000 
 C        5.2345090000     3.0045580000     0.5354890000 
 C        5.7220310000     4.2346420000     0.5905700000 
 H        0.3075680000     2.1483070000    -1.8031010000 
 H        0.7302830000     2.3254810000    -0.0931980000 
 H        0.5637170000     0.7105580000    -0.7990830000 
 H        2.7083540000     2.7654130000    -1.5599190000 
 H        2.5465390000     1.1488790000    -2.2671670000 
 H        4.6580410000     0.5835350000    -1.4900210000 
 H        4.8754980000     0.4914410000     0.2945850000 
 H        4.9026270000     2.4701220000     1.4231670000 
 H        6.0356740000     4.7601610000    -0.3026130000 
 H        5.8161070000     4.7289300000     1.5468550000 
*
