! RI PBE def2-SVP def2-SVP/J NBO PAL2
% maxcore 2000
% output
    # printlevel mini
    print[ P_Basis ] 0
    print[ P_SCFInfo ] 1
    print[ P_SCFIterInfo ] 1
    print[ P_OrbEn ] 0
    print[ P_Cartesian ] 0
end
*xyz 0 1
 C        1.1131880000     0.1531220000    -1.8289270000 
 C        2.5721870000    -0.1702850000    -1.7203290000 
 O        3.0942680000    -1.1657510000    -2.1413620000 
 O        3.2316770000     0.8154160000    -1.0861260000 
 C        4.6567590000     0.6715250000    -0.9839130000 
 C        5.3432520000     1.3512610000    -2.1193320000 
 C        6.1690280000     0.7351610000    -2.9511960000 
 H        0.5692100000    -0.7284470000    -2.1589570000 
 H        0.9792010000     0.9557000000    -2.5581100000 
 H        0.7253050000     0.5098430000    -0.8743030000 
 H        4.9152890000    -0.3870710000    -0.9470440000 
 H        4.9133680000     1.1447050000    -0.0332980000 
 H        5.1379140000     2.4128530000    -2.2355720000 
 H        6.3713420000    -0.3270650000    -2.8598040000 
 H        6.6681230000     1.2666430000    -3.7532360000 
*
