! RI PBE def2-SVP def2-SVP/J NBO PAL2
% maxcore 2000
% output
    # printlevel mini
    print[ P_Basis ] 0
    print[ P_SCFInfo ] 1
    print[ P_SCFIterInfo ] 1
    print[ P_OrbEn ] 0
    print[ P_Cartesian ] 0
end
*xyz 0 1
 C        1.9273700000     0.4627090000    -0.4975730000 
 O        2.1026170000    -0.5741470000     0.4356820000 
 C        3.1156610000    -1.4464130000     0.0701760000 
 C        3.0884410000    -2.7979680000     0.6904760000 
 C        2.8289660000    -2.6507120000    -0.7900270000 
 C        1.4220170000    -2.8785590000    -1.2739000000 
 C        3.9106320000    -3.1026600000    -1.7346870000 
 H        1.1269760000     1.1030260000    -0.1260080000 
 H        1.6494340000     0.0755100000    -1.4853340000 
 H        2.8414950000     1.0624580000    -0.6033190000 
 H        4.0850460000    -0.9638710000    -0.0663820000 
 H        2.2325600000    -3.0084710000     1.3211100000 
 H        4.0216440000    -3.2380510000     1.0218150000 
 H        0.6932500000    -2.4392520000    -0.5913500000 
 H        1.2109840000    -3.9491310000    -1.3549400000 
 H        1.2697990000    -2.4373400000    -2.2639870000 
 H        4.9051810000    -2.8734270000    -1.3435560000 
 H        3.8125440000    -2.6136910000    -2.7089590000 
 H        3.8616750000    -4.1840410000    -1.8980490000 
*
