! RI PBE def2-SVP def2-SVP/J NBO PAL2
% maxcore 2000
% output
    # printlevel mini
    print[ P_Basis ] 0
    print[ P_SCFInfo ] 1
    print[ P_SCFIterInfo ] 1
    print[ P_OrbEn ] 0
    print[ P_Cartesian ] 0
end
*xyz 0 1
 C        2.2723620000     1.0043460000    -0.6174330000 
 O        1.9648230000    -0.2263320000    -0.0107800000 
 C        3.0345280000    -1.1062460000    -0.0328740000 
 C        2.7084210000    -2.5522180000     0.0110610000 
 C        3.2642170000    -1.9336900000    -1.2592350000 
 C        4.6047170000    -2.3031230000    -1.7565120000 
 C        5.7552190000    -1.7317320000    -1.4239810000 
 H        1.3786650000     1.6259630000    -0.5615800000 
 H        2.5574960000     0.8733280000    -1.6687720000 
 H        3.0931380000     1.5141890000    -0.0954310000 
 H        3.9068920000    -0.7660120000     0.5236610000 
 H        1.6587930000    -2.8178480000     0.0158320000 
 H        3.3607520000    -3.2002390000     0.5830340000 
 H        2.5104760000    -1.8006290000    -2.0307670000 
 H        4.6226400000    -3.1371710000    -2.4566610000 
 H        5.8047860000    -0.8917820000    -0.7390680000 
 H        6.6946740000    -2.0869160000    -1.8305930000 
*
