! RI PBE def2-SVP def2-SVP/J NBO PAL2
% maxcore 2000
% output
    # printlevel mini
    print[ P_Basis ] 0
    print[ P_SCFInfo ] 1
    print[ P_SCFIterInfo ] 1
    print[ P_OrbEn ] 0
    print[ P_Cartesian ] 0
end
*xyz 0 1
 C        2.3845520000     1.1423170000     0.0922710000 
 O        2.2655670000    -0.2590090000     0.1736380000 
 C        2.7997890000    -0.7700640000     1.3365680000 
 C        3.2487290000    -2.1755210000     1.3050040000 
 C        4.2864850000    -1.0692570000     1.3800360000 
 C        5.0318820000    -0.8546320000     2.5792020000 
 C        5.6445010000    -0.6721810000     3.5975370000 
 H        1.9310980000     1.4495300000    -0.8496670000 
 H        3.4352900000     1.4557350000     0.1086160000 
 H        1.8594990000     1.6353700000     0.9202090000 
 H        2.3623080000    -0.3872790000     2.2578030000 
 H        3.1693900000    -2.6899230000     0.3559650000 
 H        3.1017320000    -2.7841950000     2.1870830000 
 H        4.8127770000    -0.8712280000     0.4521050000 
 H        6.1912020000    -0.5112620000     4.4960010000 
*
