! RI PBE def2-SVP def2-SVP/J NBO PAL2
% maxcore 2000
% output
    # printlevel mini
    print[ P_Basis ] 0
    print[ P_SCFInfo ] 1
    print[ P_SCFIterInfo ] 1
    print[ P_OrbEn ] 0
    print[ P_Cartesian ] 0
end
*xyz 0 1
 C        1.5896040000     0.0399140000    -0.2400690000 
 O        1.6056440000    -1.2620730000     0.2900640000 
 C        2.8764880000    -1.8132340000     0.3037620000 
 C        2.9643830000    -3.3005440000     0.3961720000 
 C        3.3887640000    -2.6172640000    -0.8648560000 
 C        2.5678170000    -2.7712110000    -2.1103520000 
 O        4.7748050000    -2.6228710000    -1.0596610000 
 H        0.5614370000     0.3988780000    -0.1899960000 
 H        1.9241480000     0.0563560000    -1.2848680000 
 H        2.2302000000     0.7155870000     0.3423130000 
 H        3.6236570000    -1.2346520000     0.8482090000 
 H        2.0265520000    -3.8421570000     0.3726050000 
 H        3.7400900000    -3.7236260000     1.0211980000 
 H        1.5033930000    -2.6986510000    -1.8836890000 
 H        2.7641660000    -3.7395600000    -2.5768490000 
 H        2.8122110000    -1.9905200000    -2.8384840000 
 H        5.0071400000    -1.8477830000    -1.5800910000 
*
