! RI PBE def2-SVP def2-SVP/J NBO PAL2
% maxcore 2000
% output
    # printlevel mini
    print[ P_Basis ] 0
    print[ P_SCFInfo ] 1
    print[ P_SCFIterInfo ] 1
    print[ P_OrbEn ] 0
    print[ P_Cartesian ] 0
end
*xyz 0 1
 C        1.6259130000    -0.2671900000    -0.0693580000 
 O        2.8618150000     0.2788310000    -0.4688740000 
 C        3.3566990000     1.1927860000     0.4278090000 
 C        4.3163270000     2.1806770000    -0.0636560000 
 C        2.9204840000     2.6591100000     0.2897370000 
 C        2.7244260000     3.4071720000     1.5348200000 
 O        3.4628740000     3.3394290000     2.4877710000 
 H        1.3369610000    -0.9959110000    -0.8257520000 
 H        0.8529430000     0.5078790000     0.0011770000 
 H        1.7092420000    -0.7704290000     0.9016650000 
 H        3.4556600000     0.8481260000     1.4567600000 
 H        4.5542030000     2.1547120000    -1.1191400000 
 H        5.1037560000     2.4958760000     0.6095300000 
 H        2.2444700000     2.8690110000    -0.5301360000 
 H        1.8159370000     4.0444110000     1.5725490000 
*
