! RI PBE def2-SVP def2-SVP/J NBO PAL2
% maxcore 2000
% output
    # printlevel mini
    print[ P_Basis ] 0
    print[ P_SCFInfo ] 1
    print[ P_SCFIterInfo ] 1
    print[ P_OrbEn ] 0
    print[ P_Cartesian ] 0
end
*xyz 0 1
 C        1.5800270000     0.0880990000     1.0165380000 
 O        1.7275090000    -0.5209730000    -0.2499910000 
 C        2.8936870000    -1.2513840000    -0.3729040000 
 C        2.9783620000    -2.5936470000     0.2550070000 
 C        2.8175890000    -2.4466650000    -1.2498150000 
 O        4.0535340000    -0.5020810000    -0.3504010000 
 C        4.1952470000     0.3431450000    -1.4741130000 
 H        0.6324580000     0.6258350000     0.9994810000 
 H        2.3930370000     0.7912760000     1.2207530000 
 H        1.5551810000    -0.6627750000     1.8147850000 
 H        2.1175240000    -2.9392810000     0.8136810000 
 H        3.9419580000    -2.9143460000     0.6291000000 
 H        1.8556580000    -2.6946990000    -1.6793450000 
 H        3.6800950000    -2.6713200000    -1.8646670000 
 H        5.1380150000     0.8753570000    -1.3511890000 
 H        3.3758250000     1.0652800000    -1.5386260000 
 H        4.2263940000    -0.2379310000    -2.4030850000 
*
