! RI PBE def2-SVP def2-SVP/J NBO PAL2
% maxcore 2000
% output
    # printlevel mini
    print[ P_Basis ] 0
    print[ P_SCFInfo ] 1
    print[ P_SCFIterInfo ] 1
    print[ P_OrbEn ] 0
    print[ P_Cartesian ] 0
end
*xyz 0 1
 C        2.3924850000    -0.1000950000     1.1163190000 
 O        3.4457820000     0.4238870000     0.3444660000 
 C        3.0478990000     1.3695460000    -0.6034670000 
 C        2.1408410000     0.8525620000    -1.6851980000 
 C        4.1171920000     2.3439770000    -0.9561850000 
 C        2.9258360000     2.8034020000    -0.1511600000 
 C        3.1147680000     3.2053670000     1.2839950000 
 H        2.8460600000    -0.6824640000     1.9190370000 
 H        1.7431800000    -0.7622330000     0.5313120000 
 H        1.7776270000     0.6941220000     1.5562790000 
 H        1.1683980000     0.5438340000    -1.2928740000 
 H        2.5985330000    -0.0045220000    -2.1869440000 
 H        1.9627380000     1.6291770000    -2.4308660000 
 H        4.2171420000     2.6552970000    -1.9890590000 
 H        5.0501270000     2.2391420000    -0.4146190000 
 H        2.1919470000     3.3909680000    -0.6960440000 
 H        3.7777380000     2.5065230000     1.7973210000 
 H        2.1644280000     3.2300820000     1.8244630000 
 H        3.5595800000     4.2019390000     1.3532940000 
*
