! RI PBE def2-SVP def2-SVP/J NBO PAL2
% maxcore 2000
% output
    # printlevel mini
    print[ P_Basis ] 0
    print[ P_SCFInfo ] 1
    print[ P_SCFIterInfo ] 1
    print[ P_OrbEn ] 0
    print[ P_Cartesian ] 0
end
*xyz 0 1
 C        1.7153330000     0.3240260000    -1.2936160000 
 O        2.1244020000    -0.3405290000    -0.1261280000 
 C        3.0291690000    -1.3575970000    -0.3853540000 
 C        3.0749630000    -2.4990890000     0.5750800000 
 C        2.1651020000    -2.5395500000     1.7697760000 
 C        2.5359740000    -2.7078730000    -0.8184400000 
 C        3.2867950000    -3.5250760000    -1.8299200000 
 H        1.0122340000     1.1026830000    -0.9964920000 
 H        1.2200360000    -0.3606250000    -1.9939740000 
 H        2.5658870000     0.7913070000    -1.8084190000 
 H        3.9734150000    -1.0126840000    -0.8110810000 
 H        4.0695900000    -2.9024600000     0.7475250000 
 H        2.6020280000    -2.0031250000     2.6161520000 
 H        1.2055500000    -2.0720430000     1.5460250000 
 H        1.9809750000    -3.5705230000     2.0835580000 
 H        1.4521900000    -2.7827400000    -0.8617590000 
 H        4.3633550000    -3.3524540000    -1.7478770000 
 H        2.9891400000    -3.2732400000    -2.8518350000 
 H        3.1157510000    -4.5958180000    -1.6858020000 
*
