! RI PBE def2-SVP def2-SVP/J NBO PAL2
% maxcore 2000
% output
    # printlevel mini
    print[ P_Basis ] 0
    print[ P_SCFInfo ] 1
    print[ P_SCFIterInfo ] 1
    print[ P_OrbEn ] 0
    print[ P_Cartesian ] 0
end
*xyz 0 1
 C        1.9675900000    -1.3036460000     0.0941850000 
 O        2.3269140000     0.0506120000    -0.0259220000 
 C        2.8420640000     0.3656990000    -1.2783770000 
 C        3.2883970000     1.8156590000    -1.4740210000 
 C        4.4282590000     1.2908540000    -2.3690540000 
 C        4.2688550000    -0.0697360000    -1.6679090000 
 O        4.5021500000    -1.2639820000    -2.3570300000 
 H        1.5697160000    -1.4464010000     1.0989610000 
 H        2.8276340000    -1.9676040000    -0.0505540000 
 H        1.1932020000    -1.5755590000    -0.6369490000 
 H        2.1400180000     0.0629320000    -2.0760310000 
 H        3.6680700000     2.2161280000    -0.5324830000 
 H        2.5717350000     2.5155840000    -1.9009950000 
 H        5.3996370000     1.7815890000    -2.3217030000 
 H        4.1147740000     1.2268190000    -3.4152430000 
 H        4.8843560000    -0.1079510000    -0.7649300000 
 H        4.0042380000    -1.2420770000    -3.1788580000 
*
