! RI PBE def2-SVP def2-SVP/J NBO PAL2
% maxcore 2000
% output
    # printlevel mini
    print[ P_Basis ] 0
    print[ P_SCFInfo ] 1
    print[ P_SCFIterInfo ] 1
    print[ P_OrbEn ] 0
    print[ P_Cartesian ] 0
end
*xyz 0 1
 C        2.2486280000     0.7425120000     0.6089780000 
 O        3.2739800000     0.8911790000    -0.3396720000 
 C        2.9481040000     0.4466110000    -1.6171950000 
 C        2.6949380000    -1.0279330000    -1.7569660000 
 C        3.6762280000     1.1686040000    -2.7040460000 
 C        2.2123160000     1.4111330000    -2.5252260000 
 O        1.8679280000     2.6837360000    -2.0876750000 
 H        2.5493730000     1.3048290000     1.4932330000 
 H        2.0970260000    -0.3049910000     0.8963650000 
 H        1.2923600000     1.1414610000     0.2469730000 
 H        1.8409940000    -1.3562760000    -1.1583510000 
 H        3.5747980000    -1.5963270000    -1.4430180000 
 H        2.4826210000    -1.2800930000    -2.7976110000 
 H        4.0288410000     0.6178300000    -3.5671530000 
 H        4.3082080000     1.9820070000    -2.3693670000 
 H        1.5344040000     0.9747240000    -3.2581450000 
 H        1.0692520000     2.6222020000    -1.5577130000 
*
