! RI PBE def2-SVP def2-SVP/J NBO PAL2
% maxcore 2000
% output
    # printlevel mini
    print[ P_Basis ] 0
    print[ P_SCFInfo ] 1
    print[ P_SCFIterInfo ] 1
    print[ P_OrbEn ] 0
    print[ P_Cartesian ] 0
end
*xyz 0 1
 C        0.8070580000     0.0838640000    -0.0676310000 
 O        2.1929020000     0.2182620000    -0.2691040000 
 C        2.7690700000     1.1065460000     0.6208400000 
 C        4.0253310000     1.8044780000     0.1958670000 
 C        4.6354920000     1.5594920000    -1.1546250000 
 C        2.7346730000     2.5693570000     0.3321290000 
 O        2.5262190000     3.4261160000     1.4086430000 
 H        0.4374520000    -0.6202360000    -0.8133180000 
 H        0.2901070000     1.0439200000    -0.1871870000 
 H        0.5855600000    -0.3072440000     0.9339530000 
 H        2.6887710000     0.8290920000     1.6721470000 
 H        4.7273560000     1.9638280000     1.0093120000 
 H        5.2903610000     0.6848000000    -1.1368590000 
 H        3.8653980000     1.3732360000    -1.9039650000 
 H        5.2297920000     2.4186810000    -1.4769620000 
 H        2.2513730000     2.8547120000    -0.6020620000 
 H        3.0984850000     4.1908960000     1.3018320000 
*
