! RI PBE def2-SVP def2-SVP/J NBO PAL2
% maxcore 2000
% output
    # printlevel mini
    print[ P_Basis ] 0
    print[ P_SCFInfo ] 1
    print[ P_SCFIterInfo ] 1
    print[ P_OrbEn ] 0
    print[ P_Cartesian ] 0
end
*xyz 0 1
 C        2.8872620000    -1.1218920000    -0.0658570000 
 O        2.3855230000     0.1374990000     0.3246850000 
 C        2.9199080000     1.1865530000    -0.4018960000 
 C        2.3856850000     2.5941410000    -0.0754420000 
 C        3.8178480000     3.1683280000    -0.1811520000 
 C        4.3172820000     1.7324280000    -0.0556620000 
 O        5.3273270000     1.2346480000     0.3388170000 
 H        2.3875780000    -1.8689670000     0.5501030000 
 H        3.9682870000    -1.1882270000     0.0892340000 
 H        2.6636400000    -1.3224570000    -1.1226650000 
 H        2.8713530000     0.9969540000    -1.4887000000 
 H        2.0162910000     2.6210490000     0.9501970000 
 H        1.6310010000     2.9958230000    -0.7487830000 
 H        4.1598580000     3.8615210000     0.5871680000 
 H        4.0440760000     3.5875200000    -1.1648480000 
*
