! RI PBE def2-SVP def2-SVP/J NBO PAL2
% maxcore 2000
% output
    # printlevel mini
    print[ P_Basis ] 0
    print[ P_SCFInfo ] 1
    print[ P_SCFIterInfo ] 1
    print[ P_OrbEn ] 0
    print[ P_Cartesian ] 0
end
*xyz 0 1
 C        3.0546350000    -1.2978310000     0.1669040000 
 O        2.5868040000     0.0285030000     0.1115960000 
 C        3.0857720000     0.8218890000    -0.8517130000 
 C        2.7467330000     2.1121700000    -1.0401520000 
 C        3.5026060000     2.6128500000    -2.1773100000 
 C        4.2919070000     1.6492300000    -2.6792800000 
 C        4.1007430000     0.4035060000    -1.8758260000 
 H        2.5392440000    -1.7712780000     1.0009800000 
 H        4.1346180000    -1.3380190000     0.3455240000 
 H        2.8238910000    -1.8462370000    -0.7528100000 
 H        2.0374480000     2.6723930000    -0.4481310000 
 H        3.4271930000     3.6253220000    -2.5536730000 
 H        4.9647350000     1.7257880000    -3.5210180000 
 H        5.0340510000     0.0648970000    -1.4087090000 
 H        3.7397190000    -0.4324730000    -2.4879820000 
*
