! RI PBE def2-SVP def2-SVP/J NBO PAL2
% maxcore 2000
% output
    # printlevel mini
    print[ P_Basis ] 0
    print[ P_SCFInfo ] 1
    print[ P_SCFIterInfo ] 1
    print[ P_OrbEn ] 0
    print[ P_Cartesian ] 0
end
*xyz 0 1
 C        2.8468830000     1.1867290000    -0.8965850000 
 O        2.3387890000    -0.0316460000    -0.4077470000 
 C        3.0241010000    -1.1542380000    -0.7045860000 
 C        2.6639330000    -2.3905590000    -0.3097050000 
 C        3.6660490000    -3.3613360000    -0.8314020000 
 C        4.6390800000    -2.5076670000    -1.5729690000 
 C        4.2572970000    -1.2251170000    -1.4936190000 
 H        2.1634000000     1.9631330000    -0.5557150000 
 H        2.8820450000     1.2008230000    -1.9913630000 
 H        3.8469250000     1.3961800000    -0.5015910000 
 H        1.7984520000    -2.6443970000     0.2837670000 
 H        3.2176640000    -4.1153260000    -1.4924820000 
 H        4.1642130000    -3.9240110000    -0.0302730000 
 H        5.5110450000    -2.8871690000    -2.0877770000 
 H        4.7693250000    -0.3814080000    -1.9354630000 
*
