! RI PBE def2-SVP def2-SVP/J NBO PAL2
% maxcore 2000
% output
    # printlevel mini
    print[ P_Basis ] 0
    print[ P_SCFInfo ] 1
    print[ P_SCFIterInfo ] 1
    print[ P_OrbEn ] 0
    print[ P_Cartesian ] 0
end
*xyz 0 1
 C        1.4437930000    -0.2293300000    -0.7038420000 
 O        1.3989850000     0.2694900000     0.6061390000 
 C        2.4173540000     1.1870280000     0.9309940000 
 C        3.7936940000     0.5497090000     0.9128960000 
 C        2.3715860000     2.5595130000     0.2104790000 
 C        2.5529680000     3.2342840000     1.5839380000 
 C        2.1148130000     1.9161970000     2.2494200000 
 H        0.5184260000    -0.7829160000    -0.8666980000 
 H        2.2876470000    -0.9112360000    -0.8655400000 
 H        1.5022670000     0.5786370000    -1.4455170000 
 H        4.0864910000     0.2438260000    -0.0943190000 
 H        3.8087540000    -0.3280760000     1.5637820000 
 H        4.5453210000     1.2564620000     1.2718380000 
 H        1.3725940000     2.7397600000    -0.1921790000 
 H        3.1156620000     2.7588530000    -0.5632620000 
 H        1.9503920000     4.1195510000     1.7867760000 
 H        3.5975760000     3.4745820000     1.7890980000 
 H        1.0403070000     1.8961150000     2.4380780000 
 H        2.6458920000     1.5803420000     3.1419210000 
*
