! RI PBE def2-SVP def2-SVP/J NBO PAL2
% maxcore 2000
% output
    # printlevel mini
    print[ P_Basis ] 0
    print[ P_SCFInfo ] 1
    print[ P_SCFIterInfo ] 1
    print[ P_OrbEn ] 0
    print[ P_Cartesian ] 0
end
*xyz 0 1
 C        3.0642560000    -0.1622170000     0.8968400000 
 O        2.1886170000    -0.0895540000    -0.1927140000 
 C        2.7865380000     0.4201510000    -1.3673310000 
 C        1.8325790000     0.1287530000    -2.5343460000 
 C        1.1985960000     1.4531110000    -2.8292830000 
 C        1.7900930000     2.4437780000    -2.1737500000 
 C        2.9275600000     1.9571600000    -1.3279580000 
 H        2.5127770000    -0.6009880000     1.7289510000 
 H        3.4342320000     0.8240620000     1.2074130000 
 H        3.9321950000    -0.7982460000     0.6702380000 
 H        3.7602850000    -0.0694780000    -1.5047800000 
 H        1.1143610000    -0.6403220000    -2.2372010000 
 H        2.3712140000    -0.2574100000    -3.4074440000 
 H        0.3656800000     1.5687500000    -3.5129640000 
 H        1.5097820000     3.4887550000    -2.2395420000 
 H        2.8792980000     2.3286900000    -0.2998360000 
 H        3.8918370000     2.2862040000    -1.7334750000 
*
