! RI PBE def2-SVP def2-SVP/J NBO PAL2
% maxcore 2000
% output
    # printlevel mini
    print[ P_Basis ] 0
    print[ P_SCFInfo ] 1
    print[ P_SCFIterInfo ] 1
    print[ P_OrbEn ] 0
    print[ P_Cartesian ] 0
end
*xyz 0 1
 C        1.0876130000    -0.0276310000     0.3769040000 
 O        2.4975080000     0.1049570000     0.3172190000 
 C        3.2149920000    -1.0134920000     0.2927100000 
 C        4.5596150000    -1.1874790000     0.2375820000 
 C        4.7499680000    -2.6044280000     0.2363930000 
 C        3.5249090000    -3.1675740000     0.2900050000 
 O        2.5659350000    -2.1900850000     0.3252880000 
 H        0.6972640000     0.9877690000     0.3882090000 
 H        0.7778910000    -0.5532380000     1.2835800000 
 H        0.7034010000    -0.5620660000    -0.4954530000 
 H        5.3027950000    -0.4092700000     0.2029760000 
 H        5.6897400000    -3.1324690000     0.1998110000 
 H        3.1607700000    -4.1797750000     0.3099570000 
*
