! RI PBE def2-SVP def2-SVP/J NBO PAL2
% maxcore 2000
% output
    # printlevel mini
    print[ P_Basis ] 0
    print[ P_SCFInfo ] 1
    print[ P_SCFIterInfo ] 1
    print[ P_OrbEn ] 0
    print[ P_Cartesian ] 0
end
*xyz 0 1
 C        2.7506720000    -0.9490600000     0.3152510000 
 O        2.2894650000     0.2652350000    -0.2327830000 
 C        3.2221790000     1.2868440000    -0.1923300000 
 C        2.6353660000     2.5230770000    -0.8772370000 
 C        2.3415010000     3.4158270000     0.2907410000 
 C        2.8569520000     2.8580470000     1.3764720000 
 O        3.4939460000     1.6724520000     1.1647250000 
 H        1.9668160000    -1.6885360000     0.1554440000 
 H        2.9484250000    -0.8559570000     1.3868460000 
 H        3.6674090000    -1.2839680000    -0.1880280000 
 H        4.1785030000     0.9419530000    -0.6047980000 
 H        1.7481770000     2.2311820000    -1.4438940000 
 H        3.3472240000     2.9733090000    -1.5760800000 
 H        1.8095650000     4.3533250000     0.2518490000 
 H        2.8607780000     3.2010580000     2.4017220000 
*
