! RI PBE def2-SVP def2-SVP/J NBO PAL2
% maxcore 2000
% output
    # printlevel mini
    print[ P_Basis ] 0
    print[ P_SCFInfo ] 1
    print[ P_SCFIterInfo ] 1
    print[ P_OrbEn ] 0
    print[ P_Cartesian ] 0
end
*xyz 0 1
 C        3.0603870000    -1.2443140000     0.5403590000 
 O        2.3543550000    -0.0593490000     0.2600470000 
 C        3.0985860000     1.0598360000     0.1649600000 
 C        2.5955980000     2.2950400000    -0.0989880000 
 O        3.6055970000     3.2011470000    -0.1270990000 
 C        4.7470860000     2.5393910000     0.1189950000 
 C        4.5121050000     1.2174610000     0.3086620000 
 H        2.3208690000    -2.0423090000     0.5831130000 
 H        3.5785400000    -1.1830060000     1.5039030000 
 H        3.7888370000    -1.4716590000    -0.2459820000 
 H        1.5999460000     2.6603090000    -0.2787090000 
 H        5.6487870000     3.1290920000     0.1300450000 
 H        5.2504180000     0.4621410000     0.5217840000 
*
