! RI PBE def2-SVP def2-SVP/J NBO PAL2
% maxcore 2000
% output
    # printlevel mini
    print[ P_Basis ] 0
    print[ P_SCFInfo ] 1
    print[ P_SCFIterInfo ] 1
    print[ P_OrbEn ] 0
    print[ P_Cartesian ] 0
end
*xyz 0 1
 C        2.3990130000     0.3514640000    -0.9973810000 
 O        2.1218450000    -0.5186850000     0.0646470000 
 C        3.2379210000    -1.2750250000     0.4847030000 
 C        2.8669700000    -1.9701400000     1.7848810000 
 C        2.1895570000    -3.2279630000     1.2752170000 
 O        2.9519440000    -3.6150420000     0.1456700000 
 C        3.5309710000    -2.4615380000    -0.4416400000 
 H        1.4850400000     0.9065380000    -1.2098830000 
 H        2.7019210000    -0.1809910000    -1.9086290000 
 H        3.1943840000     1.0628420000    -0.7331020000 
 H        4.1082900000    -0.6133590000     0.5892840000 
 H        2.2321710000    -1.3388890000     2.4064790000 
 H        3.7726240000    -2.2271860000     2.3398290000 
 H        1.1501860000    -3.0206150000     0.9884170000 
 H        2.1991490000    -4.0551020000     1.9875870000 
 H        3.1013540000    -2.2892410000    -1.4349990000 
 H        4.6065680000    -2.6323880000    -0.5564810000 
*
