! RI PBE def2-SVP def2-SVP/J NBO PAL2
% maxcore 2000
% output
    # printlevel mini
    print[ P_Basis ] 0
    print[ P_SCFInfo ] 1
    print[ P_SCFIterInfo ] 1
    print[ P_OrbEn ] 0
    print[ P_Cartesian ] 0
end
*xyz 0 1
 C        2.0771080000    -1.1614320000     0.7890010000 
 O        2.1741830000    -0.0349290000    -0.0409050000 
 C        2.8653430000     1.0176720000     0.5601990000 
 C        2.9693340000     2.2778590000    -0.2997180000 
 C        2.7255550000     3.1137210000     0.9740880000 
 O        3.9128580000     3.4839250000     1.6428550000 
 C        2.1511680000     1.8584320000     1.6431770000 
 H        1.5413050000    -1.9326570000     0.2352200000 
 H        1.5249730000    -0.9408050000     1.7122890000 
 H        3.0701580000    -1.5441890000     1.0631790000 
 H        3.8490620000     0.6789520000     0.9114010000 
 H        2.1165110000     2.3323100000    -0.9799460000 
 H        3.8930860000     2.4543380000    -0.8536650000 
 H        2.0522550000     3.9720110000     0.8754470000 
 H        4.3692230000     4.1374170000     1.1063680000 
 H        1.0682740000     1.8008760000     1.5143600000 
 H        2.4150130000     1.7126090000     2.6907390000 
*
