! RI PBE def2-SVP def2-SVP/J NBO PAL2
% maxcore 2000
% output
    # printlevel mini
    print[ P_Basis ] 0
    print[ P_SCFInfo ] 1
    print[ P_SCFIterInfo ] 1
    print[ P_OrbEn ] 0
    print[ P_Cartesian ] 0
end
*xyz 0 1
 C        3.2310940000     1.1704450000    -0.2103070000 
 O        2.4716260000     0.1772720000     0.4453490000 
 C        3.1903930000    -0.8533730000     0.9522670000 
 C        2.8863690000    -2.1416400000     0.8207860000 
 O        3.6642700000    -2.9800430000     1.5629880000 
 C        4.7531390000    -2.1787360000     2.0488860000 
 C        4.3169290000    -0.7152320000     1.9427390000 
 H        2.5223430000     1.9019980000    -0.5969110000 
 H        3.8029330000     0.7445270000    -1.0426880000 
 H        3.9197630000     1.6742680000     0.4769320000 
 H        2.0893020000    -2.6029930000     0.2566850000 
 H        5.6196630000    -2.3681970000     1.4059170000 
 H        4.9853130000    -2.5046180000     3.0624460000 
 H        5.1386350000    -0.0806510000     1.6029050000 
 H        3.9496380000    -0.3022470000     2.8909160000 
*
