! RI PBE def2-SVP def2-SVP/J NBO PAL2
% maxcore 2000
% output
    # printlevel mini
    print[ P_Basis ] 0
    print[ P_SCFInfo ] 1
    print[ P_SCFIterInfo ] 1
    print[ P_OrbEn ] 0
    print[ P_Cartesian ] 0
end
*xyz 0 1
 C        5.1393780000     0.4182300000    -0.1504200000 
 O        4.0369310000     0.6508600000    -0.9981490000 
 C        3.7531500000    -0.4018810000    -1.8765500000 
 C        4.7099680000    -0.4891270000    -3.0312890000 
 O        4.7458460000     0.7099490000    -3.7694350000 
 C        3.1220690000    -1.6367580000    -1.3174960000 
 C        2.3040990000    -0.6434150000    -2.1015280000 
 H        5.2000470000     1.2682390000     0.5292430000 
 H        6.0816570000     0.3446440000    -0.7056460000 
 H        5.0059400000    -0.4994870000     0.4337430000 
 H        4.3938110000    -1.2844290000    -3.7105170000 
 H        5.7154280000    -0.7514630000    -2.6689760000 
 H        4.7017320000     1.4291640000    -3.1303950000 
 H        2.9627880000    -1.6665160000    -0.2465770000 
 H        3.3595580000    -2.5929490000    -1.7687570000 
 H        1.6175150000    -0.0210210000    -1.5423390000 
 H        1.9834910000    -0.9038300000    -3.1024000000 
*
