! RI PBE def2-SVP def2-SVP/J NBO PAL2
% maxcore 2000
% output
    # printlevel mini
    print[ P_Basis ] 0
    print[ P_SCFInfo ] 1
    print[ P_SCFIterInfo ] 1
    print[ P_OrbEn ] 0
    print[ P_Cartesian ] 0
end
*xyz 0 1
 C        3.1600710000    -0.6470590000    -0.8371220000 
 O        2.2868500000    -0.1264910000     0.1269960000 
 C        2.9196330000     0.7560040000     1.0386890000 
 C        1.8981560000     1.1819700000     2.0920310000 
 O        1.5420360000     2.5453680000     1.8173700000 
 C        2.4365830000     2.9936630000     0.9136720000 
 C        3.2923430000     2.0875720000     0.4495500000 
 H        2.5982210000    -1.3710980000    -1.4275490000 
 H        4.0150570000    -1.1578870000    -0.3706430000 
 H        3.5442850000     0.1300920000    -1.5098230000 
 H        3.7730500000     0.2300920000     1.4905610000 
 H        2.3185030000     1.1471400000     3.0999040000 
 H        1.0006800000     0.5658580000     2.0408710000 
 H        2.3457910000     4.0446960000     0.6722180000 
 H        4.0745500000     2.2709690000    -0.2697250000 
*
