! RI PBE def2-SVP def2-SVP/J NBO PAL2
% maxcore 2000
% output
    # printlevel mini
    print[ P_Basis ] 0
    print[ P_SCFInfo ] 1
    print[ P_SCFIterInfo ] 1
    print[ P_OrbEn ] 0
    print[ P_Cartesian ] 0
end
*xyz 0 1
 C        1.8527870000     0.5154250000     1.5080650000 
 O        2.0851050000    -0.2623100000     0.3650570000 
 C        2.9186570000    -1.3740600000     0.6023130000 
 O        3.4992050000    -1.7593160000    -0.6048100000 
 C        2.9788230000    -3.0042190000    -1.0367160000 
 C        2.1560110000    -3.4927250000     0.1053670000 
 C        2.1456080000    -2.5783120000     1.0613170000 
 H        1.2945040000     1.3960350000     1.1910360000 
 H        2.7948070000     0.8407850000     1.9715320000 
 H        1.2604650000    -0.0163380000     2.2650500000 
 H        3.7140520000    -1.0610080000     1.2981770000 
 H        3.8162560000    -3.6706770000    -1.2736000000 
 H        2.3821480000    -2.8780350000    -1.9503940000 
 H        1.6417400000    -4.4449890000     0.1069070000 
 H        1.6260210000    -2.6296470000     2.0082980000 
*
