! RI PBE def2-SVP def2-SVP/J NBO PAL2
% maxcore 2000
% output
    # printlevel mini
    print[ P_Basis ] 0
    print[ P_SCFInfo ] 1
    print[ P_SCFIterInfo ] 1
    print[ P_OrbEn ] 0
    print[ P_Cartesian ] 0
end
*xyz 0 1
 C        1.1441670000     1.1613630000    -2.2609980000 
 O        2.5380610000     1.1103860000    -2.1539900000 
 C        2.9723940000     0.9685930000    -0.8258990000 
 C        4.4726340000     0.8920470000    -0.7950830000 
 C        5.1560300000     0.6301580000     0.5618750000 
 C        6.1747230000    -0.2628110000    -0.1725670000 
 C        5.1749070000    -0.3677550000    -1.3397100000 
 H        0.8961970000     1.2732320000    -3.3170410000 
 H        0.7264120000     2.0137680000    -1.7060030000 
 H        0.6751830000     0.2419380000    -1.8819110000 
 H        2.5417930000     0.0547620000    -0.3819550000 
 H        2.6219790000     1.8198700000    -0.2177690000 
 H        4.8880370000     1.7885850000    -1.2655270000 
 H        4.5103100000     0.0386110000     1.2178630000 
 H        5.5291060000     1.4885720000     1.1229840000 
 H        6.4899640000    -1.1853760000     0.3170210000 
 H        7.0658950000     0.3008170000    -0.4573820000 
 H        4.5296950000    -1.2449560000    -1.2377370000 
 H        5.5619060000    -0.3368120000    -2.3584800000 
*
