! RI PBE def2-SVP def2-SVP/J NBO PAL2
% maxcore 2000
% output
    # printlevel mini
    print[ P_Basis ] 0
    print[ P_SCFInfo ] 1
    print[ P_SCFIterInfo ] 1
    print[ P_OrbEn ] 0
    print[ P_Cartesian ] 0
end
*xyz 0 1
 C        1.4507000000     1.2332390000    -0.1110240000 
 O        2.7535150000     1.1818540000    -0.6230320000 
 C        3.7304530000     1.3297980000     0.3722800000 
 C        5.0918690000     1.2326640000    -0.2604630000 
 C        6.2555290000     1.1296550000     0.7317420000 
 O        6.5135590000    -0.2303510000     0.3641420000 
 C        5.5295040000    -0.1743880000    -0.6805480000 
 H        0.7623220000     1.1096170000    -0.9472350000 
 H        1.2475240000     2.1965070000     0.3776760000 
 H        1.2721940000     0.4313570000     0.6189590000 
 H        3.6182250000     0.5456360000     1.1397150000 
 H        3.6163340000     2.3016820000     0.8806640000 
 H        5.1991170000     1.9974110000    -1.0306650000 
 H        5.9919980000     1.2257560000     1.7914790000 
 H        7.1103770000     1.7797150000     0.5164240000 
 H        4.7724810000    -0.9581910000    -0.5784240000 
 H        5.9887880000    -0.2432510000    -1.6719990000 
*
