! RI PBE def2-SVP def2-SVP/J NBO PAL2
% maxcore 2000
% output
    # printlevel mini
    print[ P_Basis ] 0
    print[ P_SCFInfo ] 1
    print[ P_SCFIterInfo ] 1
    print[ P_OrbEn ] 0
    print[ P_Cartesian ] 0
end
*xyz 0 1
 C        1.1433000000     0.9396230000    -0.5161430000 
 O        2.5344310000     0.8999480000    -0.6762100000 
 C        2.9501940000    -0.0863930000    -1.5914220000 
 C        4.4444660000    -0.1476720000    -1.5589220000 
 O        4.9589470000    -0.4878360000    -0.3086120000 
 C        5.1838660000    -0.6960060000    -2.7234210000 
 C        5.2445930000     0.7797610000    -2.4222560000 
 H        0.9165640000     1.7177440000     0.2130540000 
 H        0.7527380000    -0.0193530000    -0.1487630000 
 H        0.6364180000     1.1805180000    -1.4608050000 
 H        2.5962980000     0.1500680000    -2.6057750000 
 H        2.5354710000    -1.0643040000    -1.3021040000 
 H        4.6066540000     0.1568020000     0.3147760000 
 H        4.6212570000    -1.0290500000    -3.5874230000 
 H        6.0605440000    -1.2866210000    -2.4904640000 
 H        4.7182610000     1.4649450000    -3.0755970000 
 H        6.1656070000     1.1584470000    -1.9984120000 
*
