! RI PBE def2-SVP def2-SVP/J NBO PAL2
% maxcore 2000
% output
    # printlevel mini
    print[ P_Basis ] 0
    print[ P_SCFInfo ] 1
    print[ P_SCFIterInfo ] 1
    print[ P_OrbEn ] 0
    print[ P_Cartesian ] 0
end
*xyz 0 1
 C        3.3973580000    -0.2897540000    -1.2163820000 
 O        2.6395450000    -0.3867020000    -0.0371560000 
 C        3.2714920000    -0.0758820000     1.1140810000 
 C        4.5343970000     0.3151480000     1.2802130000 
 C        5.1007320000     0.6251130000     2.6030170000 
 C        6.5380230000     0.2986860000     2.9059270000 
 C        6.1166960000     1.7249830000     2.7520840000 
 H        2.7379140000    -0.5726730000    -2.0353210000 
 H        4.2588500000    -0.9672090000    -1.1903670000 
 H        3.7563060000     0.7340990000    -1.3734440000 
 H        2.5954890000    -0.1848100000     1.9562800000 
 H        5.1989210000     0.4195680000     0.4279090000 
 H        4.4081350000     0.5098180000     3.4307940000 
 H        7.1234840000    -0.1469970000     2.1105760000 
 H        6.7808320000    -0.0635540000     3.8972890000 
 H        6.4156930000     2.2490760000     1.8521360000 
 H        6.0687350000     2.3471910000     3.6372560000 
*
