! RI PBE def2-SVP def2-SVP/J NBO PAL2
% maxcore 2000
% output
    # printlevel mini
    print[ P_Basis ] 0
    print[ P_SCFInfo ] 1
    print[ P_SCFIterInfo ] 1
    print[ P_OrbEn ] 0
    print[ P_Cartesian ] 0
end
*xyz 0 1
 C        1.2574010000    -0.0888030000    -0.1998410000 
 O        2.6586650000    -0.2005650000    -0.2210660000 
 C        3.1818570000    -1.4180230000    -0.5003070000 
 C        2.4723270000    -2.5125180000    -0.7819970000 
 C        4.6583290000    -1.3466420000    -0.4443440000 
 C        5.5325150000    -2.3696460000    -1.0902660000 
 C        5.4366110000    -1.0004170000    -1.6854450000 
 H        1.0338790000     0.9433420000     0.0657620000 
 H        0.8176380000    -0.7623530000     0.5439110000 
 H        0.8257560000    -0.3132920000    -1.1814580000 
 H        1.3934930000    -2.5161870000    -0.8412610000 
 H        2.9838480000    -3.4473240000    -0.9561210000 
 H        5.0280470000    -0.8996350000     0.4732490000 
 H        5.0590860000    -3.1808330000    -1.6277550000 
 H        6.4430370000    -2.6455340000    -0.5736180000 
 H        4.8730530000    -0.8951010000    -2.6040480000 
 H        6.2775770000    -0.3257580000    -1.5857040000 
*
