! RI PBE def2-SVP def2-SVP/J NBO PAL2
% maxcore 2000
% output
    # printlevel mini
    print[ P_Basis ] 0
    print[ P_SCFInfo ] 1
    print[ P_SCFIterInfo ] 1
    print[ P_OrbEn ] 0
    print[ P_Cartesian ] 0
end
*xyz 0 1
 C        0.7998650000     1.3146920000    -0.9399770000 
 O        2.0812120000     1.8737800000    -1.0143060000 
 C        3.0869490000     0.9004730000    -1.1421070000 
 C        4.4242840000     1.5946940000    -1.2844640000 
 C        4.5266240000     2.3890900000    -2.5517240000 
 C        5.7826060000     2.5220890000    -3.2799290000 
 O        4.7687100000     1.6442440000    -3.7406660000 
 H        0.0865910000     2.1338190000    -0.8446620000 
 H        0.6985540000     0.6525420000    -0.0683200000 
 H        0.5594270000     0.7359720000    -1.8425860000 
 H        2.8966870000     0.2686990000    -2.0231050000 
 H        3.0922120000     0.2432450000    -0.2589030000 
 H        5.2184200000     0.8425220000    -1.2682780000 
 H        4.5744430000     2.2579510000    -0.4260570000 
 H        3.7825120000     3.1737070000    -2.6727070000 
 H        6.6753210000     2.0363090000    -2.8911990000 
 H        5.9599930000     3.3963530000    -3.9016110000 
*
