! RI PBE def2-SVP def2-SVP/J NBO PAL2
% maxcore 2000
% output
    # printlevel mini
    print[ P_Basis ] 0
    print[ P_SCFInfo ] 1
    print[ P_SCFIterInfo ] 1
    print[ P_OrbEn ] 0
    print[ P_Cartesian ] 0
end
*xyz 0 1
 C        3.9924820000     0.5719660000    -0.8427650000 
 O        2.9771340000     0.3954580000     0.1180440000 
 C        3.2327970000    -0.4659430000     1.1138670000 
 C        4.3287920000    -1.2006330000     1.3090370000 
 C        4.4340560000    -2.1068140000     2.4577130000 
 C        5.3332300000    -3.2602470000     2.4656470000 
 O        5.6628370000    -2.0900410000     3.1897800000 
 H        3.6156220000     1.2967490000    -1.5619260000 
 H        4.2169310000    -0.3703060000    -1.3543600000 
 H        4.9082370000     0.9552850000    -0.3803780000 
 H        2.3913350000    -0.5163610000     1.7983620000 
 H        5.1815110000    -1.1501830000     0.6418090000 
 H        3.5500470000    -2.1613810000     3.0921500000 
 H        5.9496680000    -3.4561310000     1.5904930000 
 H        5.0877190000    -4.1326950000     3.0675260000 
*
