! RI PBE def2-SVP def2-SVP/J NBO PAL2
% maxcore 2000
% output
    # printlevel mini
    print[ P_Basis ] 0
    print[ P_SCFInfo ] 1
    print[ P_SCFIterInfo ] 1
    print[ P_OrbEn ] 0
    print[ P_Cartesian ] 0
end
*xyz 0 1
 C        1.7941640000    -0.5505830000     0.1969600000 
 O        3.1084510000    -0.5518500000    -0.3066050000 
 C        3.4823190000    -1.6279640000    -1.0320380000 
 C        2.7442650000    -2.6973860000    -1.3205400000 
 C        4.8843810000    -1.4500360000    -1.4878720000 
 C        5.9696380000    -2.2863390000    -0.9708950000 
 O        5.4443560000    -2.4771490000    -2.2727950000 
 H        1.6704720000     0.3865790000     0.7369110000 
 H        1.6329050000    -1.3913830000     0.8799400000 
 H        1.0624480000    -0.6059990000    -0.6160240000 
 H        1.7285860000    -2.8242730000    -0.9751960000 
 H        3.1825540000    -3.4716940000    -1.9337610000 
 H        5.1259070000    -0.4369530000    -1.8059750000 
 H        5.7261400000    -3.0674550000    -0.2556680000 
 H        6.9811130000    -1.8897050000    -0.9293510000 
*
