! RI PBE def2-SVP def2-SVP/J NBO PAL2
% maxcore 2000
% output
    # printlevel mini
    print[ P_Basis ] 0
    print[ P_SCFInfo ] 1
    print[ P_SCFIterInfo ] 1
    print[ P_OrbEn ] 0
    print[ P_Cartesian ] 0
end
*xyz 0 1
 C        2.4165040000     0.8382680000    -0.2074420000 
 O        3.7424850000     0.3725440000    -0.0961520000 
 C        3.8969240000    -0.7508530000     0.6315750000 
 C        5.0888810000    -1.3298890000     0.8397340000 
 C        6.3534700000    -0.7695290000     0.2755290000 
 C        5.1233300000    -2.5374040000     1.6415410000 
 C        6.2135250000    -3.2430420000     1.9495220000 
 H        2.4475020000     1.7407430000    -0.8158530000 
 H        1.9983520000     1.0826360000     0.7752220000 
 H        1.7758670000     0.0971670000    -0.6979040000 
 H        2.9859960000    -1.1742270000     1.0511870000 
 H        6.1618710000     0.1346950000    -0.2999510000 
 H        6.8440360000    -1.4976140000    -0.3778360000 
 H        7.0618620000    -0.5275750000     1.0738320000 
 H        4.1608240000    -2.8817400000     2.0160820000 
 H        7.2015060000    -2.9548790000     1.6086760000 
 H        6.1464660000    -4.1368920000     2.5569380000 
*
