! RI PBE def2-SVP def2-SVP/J NBO PAL2
% maxcore 2000
% output
    # printlevel mini
    print[ P_Basis ] 0
    print[ P_SCFInfo ] 1
    print[ P_SCFIterInfo ] 1
    print[ P_OrbEn ] 0
    print[ P_Cartesian ] 0
end
*xyz 0 1
 C        0.8667240000    -0.6354070000    -0.2663190000 
 O        2.2445770000    -0.3761390000    -0.0993440000 
 C        2.9877220000    -0.4944870000    -1.2131940000 
 C        4.3118910000    -0.2815550000    -1.2184340000 
 C        5.0857490000     0.1057400000     0.0064160000 
 C        5.0172870000    -0.4290960000    -2.4406080000 
 C        5.6625780000    -0.5412300000    -3.4519350000 
 H        0.4009290000    -0.5025620000     0.7085880000 
 H        0.6969000000    -1.6613160000    -0.6093630000 
 H        0.4169110000     0.0644070000    -0.9783180000 
 H        2.4603140000    -0.7742060000    -2.1216690000 
 H        4.4286900000     0.1836360000     0.8715070000 
 H        5.5860060000     1.0661790000    -0.1427550000 
 H        5.8622910000    -0.6333630000     0.2200500000 
 H        6.2230100000    -0.6428920000    -4.3504040000 
*
