! RI PBE def2-SVP def2-SVP/J NBO PAL2
% maxcore 2000
% output
    # printlevel mini
    print[ P_Basis ] 0
    print[ P_SCFInfo ] 1
    print[ P_SCFIterInfo ] 1
    print[ P_OrbEn ] 0
    print[ P_Cartesian ] 0
end
*xyz 0 1
 C        3.3124770000    -0.7702230000     1.1722760000 
 O        2.4825880000    -0.3055190000     0.1342840000 
 C        3.0188400000    -0.2566100000    -1.0963270000 
 C        4.2584140000    -0.5968570000    -1.4726000000 
 C        4.6958440000    -0.4891160000    -2.8458700000 
 C        5.9137730000    -0.8097780000    -3.2898830000 
 C        6.3620650000    -0.6979460000    -4.7049460000 
 H        2.7162120000    -0.7405130000     2.0825240000 
 H        4.1928690000    -0.1289830000     1.2896360000 
 H        3.6417990000    -1.7977540000     0.9831220000 
 H        2.2928380000     0.1147190000    -1.8127990000 
 H        4.9758450000    -0.9669020000    -0.7476840000 
 H        3.9627420000    -0.1157490000    -3.5606760000 
 H        6.6455520000    -1.1828060000    -2.5745520000 
 H        5.5649120000    -0.3168400000    -5.3467840000 
 H        6.6807520000    -1.6683080000    -5.1010250000 
 H        7.2227700000    -0.0269240000    -4.7995950000 
*
