! RI PBE def2-SVP def2-SVP/J NBO PAL2
% maxcore 2000
% output
    # printlevel mini
    print[ P_Basis ] 0
    print[ P_SCFInfo ] 1
    print[ P_SCFIterInfo ] 1
    print[ P_OrbEn ] 0
    print[ P_Cartesian ] 0
end
*xyz 0 1
 C        4.4298860000     0.5744390000    -0.9653810000 
 O        3.3574940000     0.0470380000    -0.2203990000 
 C        3.3838650000     0.2343380000     1.1095430000 
 C        4.3172990000     0.8702810000     1.8288430000 
 C        4.2598370000     1.0238040000     3.2746940000 
 C        3.0956590000     0.4428330000     4.0185620000 
 C        5.2324560000     1.6735370000     3.9243770000 
 H        4.2336040000     0.3255700000    -2.0067540000 
 H        5.3819190000     0.1299590000    -0.6557120000 
 H        4.4905510000     1.6624290000    -0.8539340000 
 H        2.5095890000    -0.2151300000     1.5662720000 
 H        5.1786900000     1.3076160000     1.3361810000 
 H        3.0303640000    -0.6393460000     3.8696980000 
 H        2.1504370000     0.8734580000     3.6741010000 
 H        3.1861050000     0.6336930000     5.0878370000 
 H        6.0793340000     2.0978350000     3.3961690000 
 H        5.2073210000     1.7980480000     5.0004220000 
*
