! RI PBE def2-SVP def2-SVP/J NBO PAL2
% maxcore 2000
% output
    # printlevel mini
    print[ P_Basis ] 0
    print[ P_SCFInfo ] 1
    print[ P_SCFIterInfo ] 1
    print[ P_OrbEn ] 0
    print[ P_Cartesian ] 0
end
*xyz 0 1
 C        3.4127700000     0.2248430000     1.2784240000 
 O        2.6072190000     0.2086540000     0.1238410000 
 C        3.2221460000     0.4638770000    -1.0442650000 
 C        4.5065590000     0.7412390000    -1.2539080000 
 C        5.0392390000     1.0125710000    -2.6312860000 
 C        6.0990720000     0.0925040000    -3.0255180000 
 C        6.9778540000    -0.6646260000    -3.3348320000 
 H        2.7573240000    -0.0027040000     2.1172020000 
 H        3.8688930000     1.2100110000     1.4266260000 
 H        4.2048130000    -0.5293430000     1.2166770000 
 H        2.5108090000     0.4181790000    -1.8635930000 
 H        5.2201910000     0.7731030000    -0.4394050000 
 H        5.4338800000     2.0346530000    -2.6916110000 
 H        4.2256570000     0.9572210000    -3.3622330000 
 H        7.7534740000    -1.3381910000    -3.6123310000 
*
