! RI PBE def2-SVP def2-SVP/J NBO PAL2
% maxcore 2000
% output
    # printlevel mini
    print[ P_Basis ] 0
    print[ P_SCFInfo ] 1
    print[ P_SCFIterInfo ] 1
    print[ P_OrbEn ] 0
    print[ P_Cartesian ] 0
end
*xyz 0 1
 C        1.0580450000     0.2819770000     0.1176470000 
 O        2.4575030000     0.2194410000     0.2268290000 
 C        2.9692390000    -0.3142380000     1.3579970000 
 C        2.2432820000    -0.7871430000     2.3810530000 
 C        4.4270470000    -0.3329490000     1.3723900000 
 C        5.2081350000     0.1191180000     0.3928690000 
 C        6.6950610000     0.0940920000     0.4202580000 
 H        0.8440970000     0.7360140000    -0.8487540000 
 H        0.6245990000     0.8978550000     0.9132330000 
 H        0.6114010000    -0.7175640000     0.1571960000 
 H        1.1634590000    -0.7857160000     2.3969690000 
 H        2.7559720000    -1.1939140000     3.2410780000 
 H        4.8707880000    -0.7562920000     2.2690610000 
 H        4.7362270000     0.5371890000    -0.4920380000 
 H        7.0756830000    -0.3422250000     1.3457650000 
 H        7.1065510000     1.1042740000     0.3230300000 
 H        7.0935120000    -0.4838100000    -0.4202850000 
*
