! RI PBE def2-SVP def2-SVP/J NBO PAL2
% maxcore 2000
% output
    # printlevel mini
    print[ P_Basis ] 0
    print[ P_SCFInfo ] 1
    print[ P_SCFIterInfo ] 1
    print[ P_OrbEn ] 0
    print[ P_Cartesian ] 0
end
*xyz 0 1
 C        2.9907720000     0.8181550000     0.8767100000 
 O        2.2686660000     0.1034530000    -0.1025200000 
 C        2.9635430000    -0.6276360000    -1.0144600000 
 C        2.2936710000    -1.3419820000    -1.9238310000 
 C        4.3891490000    -0.6011040000    -0.9692480000 
 C        5.5935090000    -0.5831840000    -0.9357310000 
 C        7.0414360000    -0.5699680000    -0.9064760000 
 H        2.2426930000     1.3210840000     1.4880460000 
 H        3.6520420000     1.5639130000     0.4263650000 
 H        3.5846310000     0.1501680000     1.5073270000 
 H        1.2115900000    -1.3419040000    -1.9317800000 
 H        2.8319040000    -1.9221110000    -2.6576430000 
 H        7.4483690000    -0.2088260000    -1.8546100000 
 H        7.4384570000    -1.5731120000    -0.7301520000 
 H        7.4101880000     0.0827260000    -0.1113860000 
*
