! RI PBE def2-SVP def2-SVP/J NBO PAL2
% maxcore 2000
% output
    # printlevel mini
    print[ P_Basis ] 0
    print[ P_SCFInfo ] 1
    print[ P_SCFIterInfo ] 1
    print[ P_OrbEn ] 0
    print[ P_Cartesian ] 0
end
*xyz 0 1
 C        1.5282490000    -0.3431330000     0.1682510000 
 O        2.8840040000    -0.4953750000    -0.1784390000 
 C        3.1555400000    -1.0279350000    -1.3845700000 
 C        2.2635920000    -1.3852130000    -2.3075180000 
 C        4.6414530000    -1.1582150000    -1.5786270000 
 C        5.2609550000    -2.1063710000    -0.6638400000 
 C        5.7767830000    -2.8937490000     0.0797770000 
 H        1.5130170000     0.0743170000     1.1733790000 
 H        1.0115980000    -1.3084820000     0.1631820000 
 H        1.0190930000     0.3401960000    -0.5198790000 
 H        1.1972600000    -1.2793970000    -2.1686540000 
 H        2.6065910000    -1.8081690000    -3.2407910000 
 H        5.1004500000    -0.1732840000    -1.4345110000 
 H        4.8388940000    -1.4600280000    -2.6092870000 
 H        6.2317110000    -3.5905520000     0.7429270000 
*
