! RI PBE def2-SVP def2-SVP/J NBO PAL2
% maxcore 2000
% output
    # printlevel mini
    print[ P_Basis ] 0
    print[ P_SCFInfo ] 1
    print[ P_SCFIterInfo ] 1
    print[ P_OrbEn ] 0
    print[ P_Cartesian ] 0
end
*xyz 0 1
 C        2.5037500000    -0.5896410000    -0.3487780000 
 O        2.1614500000    -0.1098240000     0.9232750000 
 C        3.1623460000     0.1566830000     1.8028130000 
 C        2.6448880000     0.6458410000     3.0749440000 
 C        1.3543970000     0.8149050000     3.3528760000 
 C        4.4662210000    -0.0126460000     1.5259380000 
 C        5.6179460000     0.2561790000     2.4337770000 
 H        1.5659520000    -0.7342980000    -0.8836320000 
 H        3.0361010000    -1.5460610000    -0.2889650000 
 H        3.1244900000     0.1286740000    -0.8968830000 
 H        3.3843140000     0.8809690000     3.8302290000 
 H        0.5855100000     0.5910030000     2.6242480000 
 H        1.0401020000     1.1832420000     4.3217610000 
 H        4.7361240000    -0.3835760000     0.5435010000 
 H        5.3211080000     0.6275840000     3.4134670000 
 H        6.2957930000     0.9953330000     1.9937920000 
 H        6.2088070000    -0.6522550000     2.5920350000 
*
