! RI PBE def2-SVP def2-SVP/J NBO PAL2
% maxcore 2000
% output
    # printlevel mini
    print[ P_Basis ] 0
    print[ P_SCFInfo ] 1
    print[ P_SCFIterInfo ] 1
    print[ P_OrbEn ] 0
    print[ P_Cartesian ] 0
end
*xyz 0 1
 C        2.3252490000     0.9904520000     0.3364190000 
 O        2.1148620000     0.4267500000    -0.9343950000 
 C        2.6802340000    -0.8568120000    -1.0822200000 
 C        2.2451630000    -1.3959840000    -2.4125470000 
 C        1.5950080000    -2.5379520000    -2.5623930000 
 C        4.1465900000    -0.8273250000    -0.9962090000 
 C        5.3453520000    -0.8062750000    -0.9350680000 
 H        1.8182890000     1.9549160000     0.3422520000 
 H        3.3913520000     1.1419850000     0.5412220000 
 H        1.8999690000     0.3584230000     1.1280460000 
 H        2.3070460000    -1.5225570000    -0.2874280000 
 H        2.5081880000    -0.7787930000    -3.2665150000 
 H        1.3311350000    -3.1572480000    -1.7109470000 
 H        1.3059400000    -2.8988470000    -3.5422700000 
 H        6.4086130000    -0.7892330000    -0.8848270000 
*
