! RI PBE def2-SVP def2-SVP/J NBO PAL2
% maxcore 2000
% output
    # printlevel mini
    print[ P_Basis ] 0
    print[ P_SCFInfo ] 1
    print[ P_SCFIterInfo ] 1
    print[ P_OrbEn ] 0
    print[ P_Cartesian ] 0
end
*xyz 0 1
 C        2.2909420000     0.2821110000     1.1041650000 
 O        3.2202510000    -0.3608320000     0.2642470000 
 C        3.5696490000     0.2995330000    -0.8923080000 
 C        2.4179240000     0.8008350000    -1.7015310000 
 C        4.8668060000     0.3561240000    -1.2177630000 
 C        5.9269160000    -0.2030920000    -0.3202530000 
 C        5.3860390000     0.9371860000    -2.4947670000 
 H        1.2935590000     0.3429070000     0.6550750000 
 H        2.6230990000     1.2927190000     1.3713110000 
 H        2.2256940000    -0.3190420000     2.0110930000 
 H        1.6782330000     0.0043680000    -1.8312250000 
 H        2.7281920000     1.1375180000    -2.6870960000 
 H        1.9099580000     1.6385730000    -1.2138140000 
 H        5.5179360000    -0.5650000000     0.6202930000 
 H        6.6877260000     0.5558950000    -0.1063960000 
 H        6.4475930000    -1.0341290000    -0.8100800000 
 H        4.6122060000     1.3311050000    -3.1508690000 
 H        5.9495660000     0.1838360000    -3.0574160000 
 H        6.0880890000     1.7519540000    -2.2847650000 
*
