! RI PBE def2-SVP def2-SVP/J NBO PAL2
% maxcore 2000
% output
    # printlevel mini
    print[ P_Basis ] 0
    print[ P_SCFInfo ] 1
    print[ P_SCFIterInfo ] 1
    print[ P_OrbEn ] 0
    print[ P_Cartesian ] 0
end
*xyz 0 1
 C        3.3837340000    -0.3125740000     0.0871560000 
 O        2.3860250000     0.3458030000    -0.6538200000 
 C        2.7633250000     1.1739610000    -1.6548910000 
 C        1.5517580000     1.7554570000    -2.2952690000 
 C        4.0440930000     1.4121140000    -1.9924310000 
 C        4.4872960000     2.2871520000    -3.0520560000 
 C        5.7670480000     2.5045690000    -3.3649230000 
 H        2.8628140000    -0.9168590000     0.8281120000 
 H        4.0396130000     0.4016980000     0.5963970000 
 H        3.9910030000    -0.9633980000    -0.5510760000 
 H        0.9171120000     0.9541300000    -2.6830430000 
 H        1.7977400000     2.4314300000    -3.1097820000 
 H        0.9650640000     2.3006430000    -1.5510690000 
 H        4.8322060000     0.9164040000    -1.4361890000 
 H        3.7272140000     2.8022520000    -3.6325180000 
 H        6.5738180000     2.0206150000    -2.8234760000 
 H        6.0452490000     3.1720150000    -4.1706210000 
*
