! RI PBE def2-SVP def2-SVP/J NBO PAL2
% maxcore 2000
% output
    # printlevel mini
    print[ P_Basis ] 0
    print[ P_SCFInfo ] 1
    print[ P_SCFIterInfo ] 1
    print[ P_OrbEn ] 0
    print[ P_Cartesian ] 0
end
*xyz 0 1
 C        3.0306060000     0.0050690000     1.3795680000 
 O        2.3051970000    -0.0596730000     0.1733070000 
 C        2.9887670000    -0.0960890000    -0.9838400000 
 C        2.0663360000    -0.1611370000    -2.1459160000 
 C        4.3340360000    -0.0756100000    -1.0670480000 
 C        5.0357510000    -0.1144380000    -2.2920460000 
 C        5.6723630000    -0.1459800000    -3.3148770000 
 H        2.2915990000     0.0264980000     2.1784190000 
 H        3.6431910000     0.9114430000     1.4242240000 
 H        3.6745530000    -0.8720520000     1.5011280000 
 H        1.4334180000    -1.0492180000    -2.0700730000 
 H        2.6227440000    -0.1932830000    -3.0800620000 
 H        1.4063150000     0.7103370000    -2.1471140000 
 H        4.9377210000    -0.0271980000    -0.1688130000 
 H        6.2295140000    -0.1740570000    -4.2205670000 
*
