! RI PBE def2-SVP def2-SVP/J NBO PAL2
% maxcore 2000
% output
    # printlevel mini
    print[ P_Basis ] 0
    print[ P_SCFInfo ] 1
    print[ P_SCFIterInfo ] 1
    print[ P_OrbEn ] 0
    print[ P_Cartesian ] 0
end
*xyz 0 1
 C        2.8192870000    -0.0880670000    -1.1942290000 
 O        2.4823250000    -0.5090340000     0.1023060000 
 C        2.9162140000    -1.8209350000     0.4711690000 
 C        2.3721250000    -2.0051240000     1.8819970000 
 C        2.3331300000    -2.8768700000    -0.4560320000 
 C        4.4233010000    -1.8348670000     0.5274550000 
 C        5.2410370000    -2.7089330000    -0.0405130000 
 H        2.5812870000     0.9749450000    -1.2491430000 
 H        2.2401690000    -0.6114440000    -1.9647460000 
 H        3.8866630000    -0.2215750000    -1.4087200000 
 H        1.2825600000    -1.9318030000     1.8691780000 
 H        2.7602110000    -1.2254830000     2.5399830000 
 H        2.6608090000    -2.9785770000     2.2815660000 
 H        1.2503040000    -2.7489350000    -0.5125560000 
 H        2.5385350000    -3.8781300000    -0.0732220000 
 H        2.7431070000    -2.8125860000    -1.4653920000 
 H        4.8389060000    -1.0219270000     1.1207790000 
 H        4.8784340000    -3.5345040000    -0.6431960000 
 H        6.3152970000    -2.6331490000     0.0844050000 
*
