! RI PBE def2-SVP def2-SVP/J NBO PAL2
% maxcore 2000
% output
    # printlevel mini
    print[ P_Basis ] 0
    print[ P_SCFInfo ] 1
    print[ P_SCFIterInfo ] 1
    print[ P_OrbEn ] 0
    print[ P_Cartesian ] 0
end
*xyz 0 1
 C        3.2559610000     0.2418780000     1.4798170000 
 O        2.8212000000     1.3436610000     0.7297900000 
 C        3.1431510000     1.2593200000    -0.6485990000 
 C        2.3594380000     2.3570450000    -1.3390140000 
 C        4.6170390000     1.3974840000    -0.8798920000 
 C        5.3776550000     0.4888740000    -1.4775460000 
 C        6.8382800000     0.6220440000    -1.7395400000 
 H        2.9327170000     0.4048470000     2.5084280000 
 H        4.3471170000     0.1323030000     1.4610430000 
 H        2.8094950000    -0.6933190000     1.1121870000 
 H        2.8181020000     0.2786240000    -1.0333040000 
 H        2.6705160000     3.3347360000    -0.9636010000 
 H        1.2921160000     2.2384540000    -1.1431870000 
 H        2.5295170000     2.3285440000    -2.4166050000 
 H        5.0604550000     2.3275300000    -0.5237010000 
 H        4.9081270000    -0.4345270000    -1.8171670000 
 H        7.2283750000     1.5683840000    -1.3604730000 
 H        7.0520680000     0.5693770000    -2.8119230000 
 H        7.3981620000    -0.1930400000    -1.2701150000 
*
