! RI PBE def2-SVP def2-SVP/J NBO PAL2
% maxcore 2000
% output
    # printlevel mini
    print[ P_Basis ] 0
    print[ P_SCFInfo ] 1
    print[ P_SCFIterInfo ] 1
    print[ P_OrbEn ] 0
    print[ P_Cartesian ] 0
end
*xyz 0 1
 C        2.3917890000    -0.3899790000    -0.9357220000 
 O        2.1659460000     0.1650750000     0.3332020000 
 C        2.7529050000     1.4376380000     0.5073670000 
 C        2.2649360000     1.9776470000     1.8384720000 
 C        4.2179350000     1.3909580000     0.4446290000 
 C        5.4195640000     1.3583170000     0.3994740000 
 C        6.8687580000     1.3154690000     0.3508910000 
 H        1.8678360000    -1.3453840000    -0.9652900000 
 H        3.4595080000    -0.5585870000    -1.1196200000 
 H        1.9973700000     0.2575200000    -1.7317220000 
 H        2.4033870000     2.1023540000    -0.3004900000 
 H        2.5942560000     1.3239500000     2.6471940000 
 H        1.1746320000     2.0194040000     1.8387400000 
 H        2.6629850000     2.9782170000     2.0114750000 
 H        7.2431180000     1.6651860000    -0.6144290000 
 H        7.2325220000     0.2963600000     0.5040640000 
 H        7.3046140000     1.9456960000     1.1300970000 
*
