! RI PBE def2-SVP def2-SVP/J NBO PAL2
% maxcore 2000
% output
    # printlevel mini
    print[ P_Basis ] 0
    print[ P_SCFInfo ] 1
    print[ P_SCFIterInfo ] 1
    print[ P_OrbEn ] 0
    print[ P_Cartesian ] 0
end
*xyz 0 1
 C        0.9973050000    -1.2514120000    -1.5886690000 
 O        2.3947720000    -1.2448130000    -1.5252380000 
 C        2.9494710000    -0.0939380000    -2.1221180000 
 C        4.4232090000    -0.1101230000    -1.9214260000 
 C        5.3770050000     0.0667990000    -2.8357910000 
 C        5.1362690000     0.3067730000    -4.2934060000 
 C        6.8219470000     0.0465040000    -2.4423540000 
 H        0.6489470000    -2.1633630000    -1.1029520000 
 H        0.6373750000    -1.2438580000    -2.6277790000 
 H        0.5639580000    -0.3840190000    -1.0696560000 
 H        2.5174550000     0.8037440000    -1.6458820000 
 H        2.6763660000    -0.0511790000    -3.1851870000 
 H        4.7251240000    -0.2801490000    -0.8902260000 
 H        4.0892530000     0.2207690000    -4.5798780000 
 H        5.7141510000    -0.4033000000    -4.8938680000 
 H        5.4813390000     1.3064960000    -4.5788910000 
 H        6.9485550000    -0.1280780000    -1.3732450000 
 H        7.3100440000     0.9938450000    -2.6964750000 
 H        7.3610640000    -0.7366260000    -2.9864370000 
*
