! RI PBE def2-SVP def2-SVP/J NBO PAL2
% maxcore 2000
% output
    # printlevel mini
    print[ P_Basis ] 0
    print[ P_SCFInfo ] 1
    print[ P_SCFIterInfo ] 1
    print[ P_OrbEn ] 0
    print[ P_Cartesian ] 0
end
*xyz 0 1
 C        1.0375460000     2.7851810000    -0.2563710000 
 O        2.4092460000     2.5653420000    -0.4316180000 
 C        3.0067380000     1.9919940000     0.7060370000 
 C        4.4345060000     1.6978210000     0.4188210000 
 C        5.4501120000     2.0683640000     1.1996460000 
 C        6.8363220000     1.7420610000     0.9391740000 
 C        7.8508690000     2.1048810000     1.7233440000 
 H        0.6533450000     3.2187490000    -1.1798460000 
 H        0.8411150000     3.4815220000     0.5712080000 
 H        0.5008610000     1.8475530000    -0.0522850000 
 H        2.4771620000     1.0580910000     0.9648700000 
 H        2.9191840000     2.6641270000     1.5734440000 
 H        4.6280450000     1.1266960000    -0.4866820000 
 H        5.2461610000     2.6519720000     2.0962560000 
 H        7.0364080000     1.1652060000     0.0387340000 
 H        7.6854710000     2.6795430000     2.6291390000 
 H        8.8742300000     1.8410180000     1.4867180000 
*
