! RI PBE def2-SVP def2-SVP/J NBO PAL2
% maxcore 2000
% output
    # printlevel mini
    print[ P_Basis ] 0
    print[ P_SCFInfo ] 1
    print[ P_SCFIterInfo ] 1
    print[ P_OrbEn ] 0
    print[ P_Cartesian ] 0
end
*xyz 0 1
 C        1.7674020000     0.3698180000    -0.6202870000 
 O        3.0727400000     0.2306590000    -0.1303600000 
 C        3.1068880000    -0.4049190000     1.1221150000 
 C        4.5057030000    -0.4249400000     1.6229550000 
 C        5.1074420000    -1.5221630000     2.0843810000 
 C        6.4220460000    -1.5496720000     2.6119060000 
 C        7.5352550000    -1.6091770000     3.0649500000 
 H        1.8312100000     0.8761840000    -1.5833190000 
 H        1.1439590000     0.9694230000     0.0580300000 
 H        1.2827850000    -0.6061530000    -0.7632060000 
 H        2.7057210000    -1.4279200000     1.0553240000 
 H        2.4691400000     0.1478520000     1.8342920000 
 H        5.0342410000     0.5237770000     1.6174020000 
 H        4.5753010000    -2.4712240000     2.0702020000 
 H        8.5215670000    -1.6515450000     3.4622160000 
*
