! RI PBE def2-SVP def2-SVP/J NBO PAL2
% maxcore 2000
% output
    # printlevel mini
    print[ P_Basis ] 0
    print[ P_SCFInfo ] 1
    print[ P_SCFIterInfo ] 1
    print[ P_OrbEn ] 0
    print[ P_Cartesian ] 0
end
*xyz 0 1
 C        2.1545400000    -0.6101190000     1.0414750000 
 O        3.5251160000    -0.3762630000     1.1948580000 
 C        3.9108220000     0.8853150000     0.6986610000 
 C        5.3960800000     1.0450740000     0.8053250000 
 C        6.1933190000    -0.0048800000     0.1004500000 
 C        5.8967360000     2.0833250000     1.4754440000 
 C        7.3277060000     2.4548910000     1.6614920000 
 H        1.9414740000    -1.6025330000     1.4399010000 
 H        1.8545970000    -0.5790140000    -0.0160990000 
 H        1.5530520000     0.1287480000     1.5903640000 
 H        3.3993920000     1.6865020000     1.2516830000 
 H        3.6021520000     0.9656240000    -0.3590530000 
 H        5.9464180000    -0.0209010000    -0.9669660000 
 H        5.9417060000    -0.9928630000     0.4941090000 
 H        7.2679280000     0.1412410000     0.1971270000 
 H        5.1820960000     2.7543340000     1.9495610000 
 H        8.0150800000     1.7702290000     1.1655730000 
 H        7.5853080000     2.4768220000     2.7254250000 
 H        7.5193770000     3.4613690000     1.2752680000 
*
