! RI PBE def2-SVP def2-SVP/J NBO PAL2
% maxcore 2000
% output
    # printlevel mini
    print[ P_Basis ] 0
    print[ P_SCFInfo ] 1
    print[ P_SCFIterInfo ] 1
    print[ P_OrbEn ] 0
    print[ P_Cartesian ] 0
end
*xyz 0 1
 C        1.8966460000    -0.5323330000     2.4581810000 
 O        3.2892570000    -0.5623140000     2.3308740000 
 C        3.7040980000    -0.9754320000     1.0549820000 
 C        5.2256490000    -0.9911340000     0.9637260000 
 C        5.5999300000    -1.4471730000    -0.4435480000 
 C        5.7730390000     0.4114570000     1.2148140000 
 C        5.7950710000    -1.9659580000     1.9910620000 
 H        1.6636640000    -0.2038880000     3.4714710000 
 H        1.4543480000    -1.5255800000     2.2954120000 
 H        1.4403560000     0.1673550000     1.7434140000 
 H        3.2953370000    -0.2953160000     0.2890880000 
 H        3.3109870000    -1.9833030000     0.8407220000 
 H        5.2016780000    -0.7671020000    -1.2021650000 
 H        5.2170200000    -2.4503130000    -0.6525600000 
 H        6.6864030000    -1.4751910000    -0.5596860000 
 H        5.3873370000     1.1207680000     0.4764050000 
 H        6.8642360000     0.4156230000     1.1452490000 
 H        5.4911920000     0.7694820000     2.2063490000 
 H        5.4255360000    -2.9807150000     1.8154380000 
 H        5.5136570000    -1.6747170000     3.0043460000 
 H        6.8865620000    -1.9919170000     1.9315440000 
*
