! RI PBE def2-SVP def2-SVP/J NBO PAL2
% maxcore 2000
% output
    # printlevel mini
    print[ P_Basis ] 0
    print[ P_SCFInfo ] 1
    print[ P_SCFIterInfo ] 1
    print[ P_OrbEn ] 0
    print[ P_Cartesian ] 0
end
*xyz 0 1
 C        0.9938810000     0.2246730000     0.3283070000 
 O        2.3703800000     0.0237870000     0.1642090000 
 C        2.8308590000    -1.1117940000     0.8442840000 
 C        4.3345210000    -1.2375400000     0.6179720000 
 C        5.0981440000    -0.0381350000     1.1774440000 
 C        4.8102910000    -2.4905420000     1.1889530000 
 C        5.1941450000    -3.5170710000     1.6797940000 
 H        0.7225900000     1.1186180000    -0.2335270000 
 H        0.7312930000     0.3742530000     1.3847880000 
 H        0.4136790000    -0.6264010000    -0.0546550000 
 H        2.3223950000    -2.0149110000     0.4768670000 
 H        2.6245730000    -1.0298430000     1.9230250000 
 H        4.4905740000    -1.2775950000    -0.4671280000 
 H        4.9729380000     0.0216290000     2.2610600000 
 H        4.7205450000     0.8817320000     0.7305110000 
 H        6.1641060000    -0.1253900000     0.9633230000 
 H        5.5404850000    -4.4275690000     2.1082710000 
*
