! RI PBE def2-SVP def2-SVP/J NBO PAL2
% maxcore 2000
% output
    # printlevel mini
    print[ P_Basis ] 0
    print[ P_SCFInfo ] 1
    print[ P_SCFIterInfo ] 1
    print[ P_OrbEn ] 0
    print[ P_Cartesian ] 0
end
*xyz 0 1
 C        0.9005760000    -0.0104660000    -0.0199230000 
 O        2.3038540000    -0.0111300000    -0.0112060000 
 C        2.8211780000    -1.3116620000    -0.1076550000 
 C        4.2706800000    -1.2845410000    -0.0964310000 
 C        5.4774450000    -1.2938840000    -0.0893260000 
 C        6.8404740000    -1.3011240000    -0.0812950000 
 C        8.0457970000    -1.3079020000    -0.0749460000 
 H        0.5783660000     1.0272430000     0.0577620000 
 H        0.4910960000    -0.5761000000     0.8284720000 
 H        0.5022030000    -0.4395350000    -0.9497540000 
 H        2.4771870000    -1.7992690000    -1.0347050000 
 H        2.4660660000    -1.9345400000     0.7298480000 
 H        9.1099780000    -1.3130810000    -0.0695290000 
*
