! RI PBE def2-SVP def2-SVP/J NBO PAL2
% maxcore 2000
% output
    # printlevel mini
    print[ P_Basis ] 0
    print[ P_SCFInfo ] 1
    print[ P_SCFIterInfo ] 1
    print[ P_OrbEn ] 0
    print[ P_Cartesian ] 0
end
*xyz 0 1
 C        1.0662570000     0.5226990000     2.5161600000 
 O        2.4594930000     0.4057230000     2.4686580000 
 C        2.9969100000     0.8668530000     1.2552070000 
 C        4.5083120000     0.7443400000     1.3015110000 
 C        5.1400470000     1.6113660000     2.3400840000 
 C        6.0543990000     2.5425780000     2.0954410000 
 C        6.6891780000     3.4134550000     3.1251880000 
 H        0.7344270000     0.1415620000     3.4824530000 
 H        0.5839170000    -0.0619690000     1.7195970000 
 H        0.7446290000     1.5692020000     2.4173110000 
 H        2.7066730000     1.9160450000     1.0876560000 
 H        2.5960570000     0.2744330000     0.4173580000 
 H        4.9074100000     0.9922180000     0.3131240000 
 H        4.7500610000    -0.3079940000     1.4938220000 
 H        4.8037540000     1.4523220000     3.3628190000 
 H        6.3821220000     2.6933550000     1.0666810000 
 H        6.3013010000     3.1977610000     4.1226860000 
 H        6.5124420000     4.4727730000     2.9121380000 
 H        7.7753020000     3.2761890000     3.1449160000 
*
