! RI PBE def2-SVP def2-SVP/J NBO PAL2
% maxcore 2000
% output
    # printlevel mini
    print[ P_Basis ] 0
    print[ P_SCFInfo ] 1
    print[ P_SCFIterInfo ] 1
    print[ P_OrbEn ] 0
    print[ P_Cartesian ] 0
end
*xyz 0 1
 C        1.7485290000     0.2149200000    -0.8429800000 
 O        3.0250130000     0.2918490000    -0.2764450000 
 C        2.9859680000     0.4045770000     1.1238460000 
 C        4.4031520000     0.4602180000     1.6477570000 
 C        4.5156410000     0.7344820000     3.1452640000 
 C        3.8760350000    -0.3618020000     3.9888840000 
 C        5.9749220000     0.9239300000     3.5360730000 
 H        1.8698120000     0.1311580000    -1.9234750000 
 H        1.1521270000     1.1119040000    -0.6216060000 
 H        1.1956250000    -0.6630350000    -0.4788130000 
 H        2.4378660000    -0.4498830000     1.5491360000 
 H        2.4373700000     1.3168890000     1.4133610000 
 H        4.9310650000     1.2443960000     1.0950810000 
 H        4.9081330000    -0.4830520000     1.4081890000 
 H        3.9870400000     1.6745840000     3.3546230000 
 H        4.3451970000    -1.3296900000     3.7835430000 
 H        2.8060990000    -0.4625010000     3.7947460000 
 H        3.9984200000    -0.1549360000     5.0552690000 
 H        6.5480410000     0.0108280000     3.3458340000 
 H        6.0730450000     1.1612750000     4.5985310000 
 H        6.4393900000     1.7321890000     2.9654720000 
*
