! RI PBE def2-SVP def2-SVP/J NBO PAL2
% maxcore 2000
% output
    # printlevel mini
    print[ P_Basis ] 0
    print[ P_SCFInfo ] 1
    print[ P_SCFIterInfo ] 1
    print[ P_OrbEn ] 0
    print[ P_Cartesian ] 0
end
*xyz 0 1
 C        1.8979210000     0.4338780000    -0.1348930000 
 O        3.1062300000    -0.1178840000     0.3059240000 
 C        2.9470840000    -1.4122240000     0.8260580000 
 C        4.3073130000    -1.9256390000     1.2620340000 
 C        4.2630240000    -3.3054340000     1.8542060000 
 C        3.5924070000    -3.4503810000     3.1856590000 
 C        4.8063090000    -4.3445910000     1.2274630000 
 H        2.1116870000     1.4301390000    -0.5230360000 
 H        1.1699060000     0.5205440000     0.6844540000 
 H        1.4454630000    -0.1696330000    -0.9345350000 
 H        2.5197350000    -2.0816500000     0.0631190000 
 H        2.2436420000    -1.3912330000     1.6727430000 
 H        4.7140310000    -1.2187110000     1.9947640000 
 H        4.9727330000    -1.9111460000     0.3957540000 
 H        2.5366330000    -3.1664620000     3.1382770000 
 H        4.0591600000    -2.7933900000     3.9272910000 
 H        3.6491600000    -4.4763430000     3.5512230000 
 H        5.3003750000    -4.2313590000     0.2684930000 
 H        4.7801750000    -5.3413490000     1.6547010000 
*
