! RI PBE def2-SVP def2-SVP/J NBO PAL2
% maxcore 2000
% output
    # printlevel mini
    print[ P_Basis ] 0
    print[ P_SCFInfo ] 1
    print[ P_SCFIterInfo ] 1
    print[ P_OrbEn ] 0
    print[ P_Cartesian ] 0
end
*xyz 0 1
 C        1.2046490000     0.0225320000     0.3132790000 
 O        2.5675890000     0.3377950000     0.3428560000 
 C        2.9271640000     1.2643600000    -0.6479340000 
 C        4.4065630000     1.5525640000    -0.5446850000 
 C        4.8776440000     2.5465030000    -1.6017870000 
 C        6.3486250000     2.7924570000    -1.5434090000 
 C        6.9201680000     3.9719670000    -1.3462190000 
 H        1.0142960000    -0.6978890000     1.1092980000 
 H        0.9134270000    -0.4250570000    -0.6478420000 
 H        0.5799140000     0.9114350000     0.4817310000 
 H        2.3465040000     2.1937710000    -0.5257090000 
 H        2.6851410000     0.8641120000    -1.6466410000 
 H        4.9551470000     0.6103110000    -0.6449290000 
 H        4.6267690000     1.9395170000     0.4545190000 
 H        4.3439420000     3.4963920000    -1.4916670000 
 H        4.6200800000     2.1546150000    -2.5948470000 
 H        6.9818880000     1.9145920000    -1.6661590000 
 H        6.3286090000     4.8732070000    -1.2150680000 
 H        7.9977810000     4.0822450000    -1.3098890000 
*
