! RI PBE def2-SVP def2-SVP/J NBO PAL2
% maxcore 2000
% output
    # printlevel mini
    print[ P_Basis ] 0
    print[ P_SCFInfo ] 1
    print[ P_SCFIterInfo ] 1
    print[ P_OrbEn ] 0
    print[ P_Cartesian ] 0
end
*xyz 0 1
 C        1.1020160000    -0.4931240000    -0.3434540000 
 O        2.4931790000    -0.4674140000    -0.1915760000 
 C        3.0622460000    -1.7494940000    -0.2420790000 
 C        4.5544600000    -1.6249730000    -0.0404530000 
 C        5.2753320000    -2.9722950000    -0.1035800000 
 C        4.8930840000    -3.8923520000     0.9564660000 
 C        4.5771110000    -4.6419500000     1.8397050000 
 H        0.7443220000     0.5354060000    -0.2884670000 
 H        0.6195620000    -1.0805790000     0.4503990000 
 H        0.8089000000    -0.9196530000    -1.3134720000 
 H        2.8478220000    -2.2220390000    -1.2155570000 
 H        2.6251370000    -2.3946680000     0.5347400000 
 H        4.7453710000    -1.1473920000     0.9239710000 
 H        4.9629230000    -0.9688510000    -0.8140170000 
 H        6.3557220000    -2.8062270000    -0.0498470000 
 H        5.0875690000    -3.4490960000    -1.0725820000 
 H        4.3000250000    -5.3092000000     2.6210240000 
*
