! RI PBE def2-SVP def2-SVP/J NBO PAL2
% maxcore 2000
% output
    # printlevel mini
    print[ P_Basis ] 0
    print[ P_SCFInfo ] 1
    print[ P_SCFIterInfo ] 1
    print[ P_OrbEn ] 0
    print[ P_Cartesian ] 0
end
*xyz 0 1
 C        4.1020540000    -1.9473140000    -0.8187590000 
 O        4.4098490000    -0.7972430000    -0.0654020000 
 C        4.4430500000     0.3563100000    -0.7715560000 
 C        4.5617850000     1.5541590000    -0.2023450000 
 C        4.6649120000     1.7429420000     1.2762840000 
 C        4.5995420000     2.7715610000    -1.0697420000 
 O        5.8403160000     3.4623720000    -1.0401330000 
 H        4.1583520000    -2.7967870000    -0.1395940000 
 H        4.8210450000    -2.0931150000    -1.6329130000 
 H        3.0913100000    -1.8905970000    -1.2381600000 
 H        4.3765160000     0.2490670000    -1.8530480000 
 H        5.6631660000     2.0893100000     1.5674640000 
 H        4.4752290000     0.8128670000     1.8110150000 
 H        3.9473140000     2.4944940000     1.6241090000 
 H        3.7865880000     3.4565030000    -0.7833530000 
 H        4.4406330000     2.4964740000    -2.1144810000 
 H        5.9722200000     3.8080970000    -0.1541880000 
*
