! RI PBE def2-SVP def2-SVP/J NBO PAL2
% maxcore 2000
% output
    # printlevel mini
    print[ P_Basis ] 0
    print[ P_SCFInfo ] 1
    print[ P_SCFIterInfo ] 1
    print[ P_OrbEn ] 0
    print[ P_Cartesian ] 0
end
*xyz 0 1
 C        1.1830240000     0.0597940000    -0.1178160000 
 O        2.5968440000     0.0122870000    -0.0533220000 
 C        3.2290680000     1.1577360000    -0.3084700000 
 C        4.5657130000     1.2844960000    -0.2886890000 
 C        5.5244130000     0.1857270000     0.0154820000 
 C        5.0747040000     2.6134910000    -0.5933340000 
 O        6.2463810000     2.9111430000    -0.6214790000 
 H        0.8258230000    -0.9419980000     0.1119640000 
 H        0.8467950000     0.3426720000    -1.1198260000 
 H        0.7817510000     0.7642290000     0.6169210000 
 H        2.5984930000     2.0157460000    -0.5415080000 
 H        5.0060600000    -0.7491830000     0.2237220000 
 H        6.1442880000     0.4499330000     0.8758860000 
 H        6.2086960000     0.0357400000    -0.8233300000 
 H        4.2930380000     3.3763670000    -0.8089000000 
*
