! RI PBE def2-SVP def2-SVP/J NBO PAL2
% maxcore 2000
% output
    # printlevel mini
    print[ P_Basis ] 0
    print[ P_SCFInfo ] 1
    print[ P_SCFIterInfo ] 1
    print[ P_OrbEn ] 0
    print[ P_Cartesian ] 0
end
*xyz 0 1
 C        4.3637330000     1.0740260000    -0.9651860000 
 O        3.2131810000     0.5656330000    -0.3326190000 
 C        3.2999880000     0.3270560000     0.9885670000 
 C        4.3479870000     0.5231280000     1.7880610000 
 C        4.3712380000     0.2129000000     3.2540110000 
 C        3.0827160000    -0.3521460000     3.8214720000 
 O        5.4734380000    -0.6406700000     3.5520350000 
 H        4.1088960000     1.1991010000    -2.0161050000 
 H        5.2050890000     0.3787200000    -0.8720850000 
 H        4.6527660000     2.0413790000    -0.5402000000 
 H        2.3571850000    -0.0613760000     1.3569350000 
 H        5.2790170000     0.9176150000     1.3953160000 
 H        4.6080790000     1.1353390000     3.7974290000 
 H        2.8054880000    -1.2854900000     3.3224220000 
 H        2.2537920000     0.3525620000     3.7204220000 
 H        3.2244230000    -0.5665500000     4.8814120000 
 H        5.4016950000    -1.4083180000     2.9763120000 
*
