! RI PBE def2-SVP def2-SVP/J NBO PAL2
% maxcore 2000
% output
    # printlevel mini
    print[ P_Basis ] 0
    print[ P_SCFInfo ] 1
    print[ P_SCFIterInfo ] 1
    print[ P_OrbEn ] 0
    print[ P_Cartesian ] 0
end
*xyz 0 1
 C        4.3222510000     0.3933280000    -0.9700800000 
 O        3.1489690000     0.2525460000    -0.1918080000 
 C        3.2121280000    -0.5443110000     0.8718990000 
 C        4.2661950000    -1.2466590000     1.3117830000 
 C        4.2251230000    -2.0983410000     2.5027760000 
 C        2.9436070000    -2.2102250000     3.2955620000 
 O        5.2172710000    -2.7085450000     2.8471340000 
 H        4.0698250000     1.0742340000    -1.7800200000 
 H        4.6342870000    -0.5713150000    -1.3806440000 
 H        5.1365860000     0.8136470000    -0.3728720000 
 H        2.2546580000    -0.5678190000     1.3814500000 
 H        5.2233990000    -1.2255680000     0.8056850000 
 H        2.1321380000    -2.6040850000     2.6781440000 
 H        2.6289200000    -1.2344220000     3.6745000000 
 H        3.1140530000    -2.8821750000     4.1342900000 
*
