! RI PBE def2-SVP def2-SVP/J NBO PAL2
% maxcore 2000
% output
    # printlevel mini
    print[ P_Basis ] 0
    print[ P_SCFInfo ] 1
    print[ P_SCFIterInfo ] 1
    print[ P_OrbEn ] 0
    print[ P_Cartesian ] 0
end
*xyz 0 1
 C        5.1323920000    -0.6461600000     0.0151280000 
 O        3.7459170000    -0.5335900000     0.2408930000 
 C        3.3578710000     0.2711690000     1.2414900000 
 C        4.1200460000     1.0041710000     2.0539350000 
 C        3.5424440000     1.8454150000     3.1492700000 
 C        3.8985990000     1.2686440000     4.4967800000 
 O        4.5552600000     1.8277640000     5.3302470000 
 H        5.2552280000    -1.3379300000    -0.8159940000 
 H        5.6437490000    -1.0402790000     0.8999870000 
 H        5.5680020000     0.3237680000    -0.2478000000 
 H        2.2748530000     0.2751810000     1.3250060000 
 H        5.2001470000     0.9979400000     1.9601640000 
 H        2.4486600000     1.8545670000     3.0714380000 
 H        3.9025650000     2.8766700000     3.1116720000 
 H        3.5192680000     0.2363600000     4.6665640000 
*
