! RI PBE def2-SVP def2-SVP/J NBO PAL2
% maxcore 2000
% output
    # printlevel mini
    print[ P_Basis ] 0
    print[ P_SCFInfo ] 1
    print[ P_SCFIterInfo ] 1
    print[ P_OrbEn ] 0
    print[ P_Cartesian ] 0
end
*xyz 0 1
 C        1.3663280000     0.0783060000     0.1478910000 
 O        2.7363950000     0.0918460000     0.4710620000 
 C        3.1198020000     0.8415090000     1.5269530000 
 C        2.3049770000     1.5750970000     2.2922370000 
 C        4.6054180000     0.8114950000     1.6858070000 
 C        5.2848920000     1.7461520000     0.6874800000 
 O        4.9536960000     3.0957410000     0.9087020000 
 H        1.2596930000    -0.5741240000    -0.7170110000 
 H        1.0102440000     1.0827550000    -0.1046910000 
 H        0.7693190000    -0.3138850000     0.9779680000 
 H        1.2352330000     1.6242640000     2.1451620000 
 H        2.7220410000     2.1235050000     3.1252980000 
 H        4.9629980000    -0.2100030000     1.5261270000 
 H        4.8716120000     1.1179860000     2.6989450000 
 H        5.0296160000     1.4361570000    -0.3350120000 
 H        6.3690560000     1.6717320000     0.7973110000 
 H        3.9950790000     3.1469670000     1.0015900000 
*
