! RI PBE def2-SVP def2-SVP/J NBO PAL2
% maxcore 2000
% output
    # printlevel mini
    print[ P_Basis ] 0
    print[ P_SCFInfo ] 1
    print[ P_SCFIterInfo ] 1
    print[ P_OrbEn ] 0
    print[ P_Cartesian ] 0
end
*xyz 0 1
 C        1.7242930000    -0.1305070000     0.7213780000 
 O        3.0787450000    -0.4524870000     0.5138220000 
 C        3.3354160000    -1.5207800000    -0.2710680000 
 C        2.4410310000    -2.3053190000    -0.8720830000 
 C        4.8097980000    -1.7757980000    -0.4263540000 
 C        5.7437280000    -0.8423990000     0.2870840000 
 O        5.2054580000    -2.6970010000    -1.0980950000 
 H        1.7080850000     0.7445220000     1.3686740000 
 H        1.1946520000    -0.9569290000     1.2075820000 
 H        1.2272080000     0.1042230000    -0.2260900000 
 H        1.3727970000    -2.1644120000    -0.7920850000 
 H        2.8170630000    -3.1238600000    -1.4694140000 
 H        5.5449900000    -0.8550520000     1.3615210000 
 H        5.5783390000     0.1857490000    -0.0440040000 
 H        6.7697960000    -1.1442500000     0.0879130000 
*
