! RI PBE def2-SVP def2-SVP/J NBO PAL2
% maxcore 2000
% output
    # printlevel mini
    print[ P_Basis ] 0
    print[ P_SCFInfo ] 1
    print[ P_SCFIterInfo ] 1
    print[ P_OrbEn ] 0
    print[ P_Cartesian ] 0
end
*xyz 0 1
 C        1.1810790000    -0.3830370000    -0.6644980000 
 O        2.5556980000    -0.4820060000    -0.3720780000 
 C        3.1044930000    -1.7170240000    -0.3856390000 
 C        2.4694710000    -2.8530290000    -0.6728660000 
 C        4.5459940000    -1.6448960000     0.0060800000 
 C        4.7255990000    -1.3432420000     1.4749130000 
 O        5.5778860000    -1.8391670000     2.1566920000 
 H        0.9250260000     0.6722780000    -0.5904780000 
 H        0.5842580000    -0.9578590000     0.0512140000 
 H        0.9686100000    -0.7410030000    -1.6771800000 
 H        1.4242970000    -2.8934460000    -0.9439520000 
 H        3.0155250000    -3.7849410000    -0.6412310000 
 H        5.0171970000    -0.8209360000    -0.5456620000 
 H        5.0763650000    -2.5660410000    -0.2311970000 
 H        4.0085930000    -0.6088510000     1.8971920000 
*
