! RI PBE def2-SVP def2-SVP/J NBO PAL2
% maxcore 2000
% output
    # printlevel mini
    print[ P_Basis ] 0
    print[ P_SCFInfo ] 1
    print[ P_SCFIterInfo ] 1
    print[ P_OrbEn ] 0
    print[ P_Cartesian ] 0
end
*xyz 0 1
 C        4.5913280000     1.5933910000     1.1639700000 
 O        4.2545090000     2.3660770000     0.0373450000 
 C        3.7566310000     1.6012760000    -1.0200690000 
 C        3.1473060000     2.4809070000    -2.0679580000 
 C        3.1866660000     3.8044350000    -2.0468830000 
 C        4.8826780000     0.8305490000    -1.7039590000 
 O        4.7436040000    -0.2169170000    -2.2665750000 
 H        4.9689490000     2.2782440000     1.9224560000 
 H        5.3692820000     0.8517880000     0.9399900000 
 H        3.7138650000     1.0667120000     1.5604700000 
 H        3.0111760000     0.8683250000    -0.6742210000 
 H        2.6796720000     1.9448800000    -2.8886350000 
 H        3.6562490000     4.3383990000    -1.2300750000 
 H        2.7350030000     4.3858840000    -2.8416040000 
 H        5.8603030000     1.3600600000    -1.6628620000 
*
