! RI PBE def2-SVP def2-SVP/J NBO PAL2
% maxcore 2000
% output
    # printlevel mini
    print[ P_Basis ] 0
    print[ P_SCFInfo ] 1
    print[ P_SCFIterInfo ] 1
    print[ P_OrbEn ] 0
    print[ P_Cartesian ] 0
end
*xyz 0 1
 C        2.8764220000    -0.3737650000     0.6170200000 
 O        2.2398870000     0.4797590000    -0.3018780000 
 C        3.0087290000     1.1653220000    -1.1825120000 
 C        2.1244230000     1.9872150000    -2.0575870000 
 C        4.3447770000     1.0828700000    -1.2356530000 
 C        5.2313810000     1.8276640000    -2.1724950000 
 O        6.0877710000     2.7395440000    -1.4979500000 
 H        2.0847440000    -0.8235340000     1.2142190000 
 H        3.5560160000     0.1809160000     1.2728570000 
 H        3.4394580000    -1.1615340000     0.1051280000 
 H        1.4848140000     1.3359830000    -2.6591860000 
 H        2.6867490000     2.6348290000    -2.7254370000 
 H        1.4665960000     2.6013850000    -1.4378580000 
 H        4.8646090000     0.4461200000    -0.5286440000 
 H        4.6538690000     2.3416490000    -2.9492350000 
 H        5.9061920000     1.1360570000    -2.6850210000 
 H        5.5390600000     3.2516890000    -0.8975480000 
*
