! RI PBE def2-SVP def2-SVP/J NBO PAL2
% maxcore 2000
% output
    # printlevel mini
    print[ P_Basis ] 0
    print[ P_SCFInfo ] 1
    print[ P_SCFIterInfo ] 1
    print[ P_OrbEn ] 0
    print[ P_Cartesian ] 0
end
*xyz 0 1
 C        1.5091560000     0.0679360000     0.0660290000 
 O        2.8205240000     0.5580060000    -0.0193090000 
 C        3.0443830000     1.7196600000    -0.8260630000 
 C        2.5537520000     1.5174560000    -2.2518110000 
 C        2.4184220000     2.9518760000    -0.1908910000 
 C        4.5664830000     1.8523620000    -0.7950650000 
 O        5.2164160000     0.7006940000    -1.2656340000 
 H        1.5260060000    -0.7417310000     0.7965490000 
 H        1.1507210000    -0.3348200000    -0.8882100000 
 H        0.8008860000     0.8288050000     0.4145580000 
 H        1.4686040000     1.4039540000    -2.2936260000 
 H        3.0227580000     0.6385760000    -2.6964120000 
 H        2.8164020000     2.3864120000    -2.8590090000 
 H        1.3275900000     2.9145640000    -0.2230470000 
 H        2.7282140000     3.8522390000    -0.7269590000 
 H        2.7319420000     3.0445830000     0.8510700000 
 H        4.8689110000     2.0828640000     0.2366030000 
 H        4.8761950000     2.6830140000    -1.4337910000 
 H        4.8244150000    -0.0358410000    -0.7831830000 
*
