! RI PBE def2-SVP def2-SVP/J NBO PAL2
% maxcore 2000
% output
    # printlevel mini
    print[ P_Basis ] 0
    print[ P_SCFInfo ] 1
    print[ P_SCFIterInfo ] 1
    print[ P_OrbEn ] 0
    print[ P_Cartesian ] 0
end
*xyz 0 1
 C        2.7069240000    -0.8313950000    -0.8116670000 
 O        2.4326700000     0.0454900000     0.2541670000 
 C        2.9691140000    -0.3317930000     1.5117160000 
 C        2.4981830000     0.7437080000     2.4825910000 
 C        2.5438310000    -1.7150560000     1.9661230000 
 C        4.4867350000    -0.2046010000     1.4349700000 
 O        5.2735540000    -0.9017900000     2.0098960000 
 H        2.4247330000    -0.3106170000    -1.7267740000 
 H        2.1272910000    -1.7585050000    -0.7432040000 
 H        3.7719610000    -1.0922110000    -0.8745190000 
 H        1.4068160000     0.7439430000     2.5098200000 
 H        2.8304490000     1.7305310000     2.1532750000 
 H        2.8815220000     0.5540860000     3.4861240000 
 H        1.4544670000    -1.7717710000     2.0117030000 
 H        2.9524110000    -1.9189220000     2.9559080000 
 H        2.9134140000    -2.4949590000     1.2989910000 
 H        4.8173350000     0.6476420000     0.7987980000 
*
