! RI PBE def2-SVP def2-SVP/J NBO PAL2
% maxcore 2000
% output
    # printlevel mini
    print[ P_Basis ] 0
    print[ P_SCFInfo ] 1
    print[ P_SCFIterInfo ] 1
    print[ P_OrbEn ] 0
    print[ P_Cartesian ] 0
end
*xyz 0 1
 C        3.0637170000     2.0537760000     0.1933260000 
 O        3.8821460000     1.7312780000    -0.8985500000 
 C        3.3193840000     0.7919700000    -1.8004790000 
 C        2.2418910000     1.4034650000    -2.6748450000 
 C        4.4931550000     0.2074820000    -2.5834470000 
 C        5.1997720000     1.2138150000    -3.4754850000 
 O        5.3982370000    -0.3937990000    -1.6803200000 
 H        3.6471960000     2.6895160000     0.8601090000 
 H        2.7546530000     1.1530340000     0.7409400000 
 H        2.1643540000     2.6030340000    -0.1100180000 
 H        2.8906220000    -0.0355330000    -1.2140700000 
 H        2.6149420000     2.2933120000    -3.1850090000 
 H        1.3656630000     1.6875360000    -2.0891350000 
 H        1.9119090000     0.6837100000    -3.4282110000 
 H        4.1014820000    -0.6097450000    -3.1983880000 
 H        5.5446420000     2.0703000000    -2.8917470000 
 H        4.5474980000     1.5803320000    -4.2715470000 
 H        6.0660480000     0.7372580000    -3.9366150000 
 H        5.5587880000     0.2635400000    -0.9934180000 
*
