! RI PBE def2-SVP def2-SVP/J NBO PAL2
% maxcore 2000
% output
    # printlevel mini
    print[ P_Basis ] 0
    print[ P_SCFInfo ] 1
    print[ P_SCFIterInfo ] 1
    print[ P_OrbEn ] 0
    print[ P_Cartesian ] 0
end
*xyz 0 1
 C        3.3155300000    -1.6602250000    -0.3908520000 
 O        3.0897540000    -1.5363060000     0.9897190000 
 C        3.1942730000    -0.2129680000     1.4550760000 
 C        2.4760090000    -0.1228260000     2.7889360000 
 C        4.6428890000     0.2441250000     1.6367930000 
 C        5.6612040000    -0.8052250000     1.9817790000 
 O        4.9196820000     1.4141100000     1.5441870000 
 H        3.2092580000    -2.7150650000    -0.6440680000 
 H        4.3215370000    -1.3284340000    -0.6818730000 
 H        2.5842880000    -1.0787360000    -0.9672640000 
 H        2.7327200000     0.4843360000     0.7420820000 
 H        2.9180360000    -0.8116960000     3.5122970000 
 H        1.4270480000    -0.3930130000     2.6590000000 
 H        2.5369850000     0.8922330000     3.1834760000 
 H        5.8395340000    -1.4486250000     1.1160900000 
 H        5.2935640000    -1.4579590000     2.7766510000 
 H        6.5925790000    -0.3252440000     2.2764630000 
*
