! RI PBE def2-SVP def2-SVP/J NBO PAL2
% maxcore 2000
% output
    # printlevel mini
    print[ P_Basis ] 0
    print[ P_SCFInfo ] 1
    print[ P_SCFIterInfo ] 1
    print[ P_OrbEn ] 0
    print[ P_Cartesian ] 0
end
*xyz 0 1
 C        1.1973640000     0.1734910000     0.0413570000 
 O        2.5935880000     0.0519740000    -0.0125390000 
 C        3.0049970000    -1.0197520000    -0.8164890000 
 C        4.4865000000    -1.1206920000    -0.7679650000 
 C        5.2705490000    -1.4414170000    -1.7957560000 
 C        6.7178090000    -1.5646440000    -1.6187920000 
 O        7.4892030000    -1.8664130000    -2.4940520000 
 H        0.9683640000     1.0213300000     0.6863260000 
 H        0.7312790000    -0.7299160000     0.4586310000 
 H        0.7699630000     0.3571110000    -0.9537420000 
 H        2.6559080000    -0.8973140000    -1.8525560000 
 H        2.5712750000    -1.9635700000    -0.4396700000 
 H        4.9339280000    -0.9359690000     0.2076210000 
 H        4.8788980000    -1.6227690000    -2.7926960000 
 H        7.0766740000    -1.3518500000    -0.5877680000 
*
