! RI PBE def2-SVP def2-SVP/J NBO PAL2
% maxcore 2000
% output
    # printlevel mini
    print[ P_Basis ] 0
    print[ P_SCFInfo ] 1
    print[ P_SCFIterInfo ] 1
    print[ P_OrbEn ] 0
    print[ P_Cartesian ] 0
end
*xyz 0 1
 C        1.7544450000    -2.7214380000    -0.8321300000 
 O        3.0942650000    -2.3479640000    -0.6463770000 
 C        3.2383050000    -1.2761320000     0.2645260000 
 C        4.6896020000    -1.0068520000     0.5142310000 
 C        5.1819990000     0.2236630000     0.4472700000 
 C        5.5347940000    -2.1927940000     0.8889360000 
 O        5.7729420000    -3.0626490000    -0.1965930000 
 H        1.7376370000    -3.5467030000    -1.5436360000 
 H        1.1627310000    -1.8898620000    -1.2366600000 
 H        1.2962940000    -3.0500570000     0.1103760000 
 H        2.7499620000    -1.5489120000     1.2155060000 
 H        2.7362790000    -0.3784130000    -0.1212970000 
 H        4.5659930000     1.0708710000     0.1636080000 
 H        6.2214220000     0.4263620000     0.6810840000 
 H        5.0517100000    -2.7322560000     1.7199060000 
 H        6.5112380000    -1.8538490000     1.2407490000 
 H        4.9185920000    -3.2133340000    -0.6187890000 
*
