! RI PBE def2-SVP def2-SVP/J NBO PAL2
% maxcore 2000
% output
    # printlevel mini
    print[ P_Basis ] 0
    print[ P_SCFInfo ] 1
    print[ P_SCFIterInfo ] 1
    print[ P_OrbEn ] 0
    print[ P_Cartesian ] 0
end
*xyz 0 1
 C        0.9421060000    -0.0638910000    -0.0146240000 
 O        2.3431340000    -0.1059420000     0.0251890000 
 C        2.9238980000     1.0376990000    -0.5292120000 
 C        4.4116710000     0.9501350000    -0.4674400000 
 C        5.0885180000    -0.0759270000     0.0446490000 
 C        5.1652010000     2.0879570000    -1.0162670000 
 O        4.6572160000     3.0669950000    -1.5031160000 
 H        0.5741140000    -0.9859220000     0.4351720000 
 H        0.5709940000     0.0032240000    -1.0462770000 
 H        0.5492260000     0.7913770000     0.5516770000 
 H        2.5954960000     1.9466120000    -0.0005900000 
 H        2.6154030000     1.1717810000    -1.5781510000 
 H        4.5828290000    -0.9374620000     0.4610560000 
 H        6.1737360000    -0.0639660000     0.0525080000 
 H        6.2692680000     1.9845300000    -0.9515650000 
*
