! RI PBE def2-SVP def2-SVP/J NBO PAL2
% maxcore 2000
% output
    # printlevel mini
    print[ P_Basis ] 0
    print[ P_SCFInfo ] 1
    print[ P_SCFIterInfo ] 1
    print[ P_OrbEn ] 0
    print[ P_Cartesian ] 0
end
*xyz 0 1
 C        1.0076620000    -2.0715030000     1.5046680000 
 O        2.4062590000    -1.9678330000     1.4801740000 
 C        2.8518360000    -0.6416230000     1.2934870000 
 C        4.3677890000    -0.5837210000     1.3104120000 
 C        4.8201860000     0.8520920000     1.0863420000 
 C        4.9439370000    -1.1313010000     2.6124780000 
 O        4.8148810000    -2.5236860000     2.7524400000 
 H        0.7554840000    -3.1227200000     1.6437080000 
 H        0.5682930000    -1.7211240000     0.5613600000 
 H        0.5762460000    -1.4870300000     2.3282730000 
 H        2.4478480000     0.0000110000     2.0943470000 
 H        2.4664960000    -0.2546470000     0.3377510000 
 H        4.7419910000    -1.2135870000     0.4945850000 
 H        4.5090750000     1.4979130000     1.9134160000 
 H        4.4008540000     1.2666520000     0.1663090000 
 H        5.9078560000     0.9100570000     1.0120940000 
 H        4.4754060000    -0.5992690000     3.4584660000 
 H        6.0151580000    -0.9127130000     2.6533450000 
 H        3.9072240000    -2.7409700000     2.5070440000 
*
