! RI PBE def2-SVP def2-SVP/J NBO PAL2
% maxcore 2000
% output
    # printlevel mini
    print[ P_Basis ] 0
    print[ P_SCFInfo ] 1
    print[ P_SCFIterInfo ] 1
    print[ P_OrbEn ] 0
    print[ P_Cartesian ] 0
end
*xyz 0 1
 C        2.5941620000     0.3912700000     3.4728500000 
 O        3.7904580000     0.4579040000     2.7470980000 
 C        3.7662520000    -0.3195920000     1.5754830000 
 C        5.0579070000    -0.0702900000     0.8064220000 
 C        4.9924820000    -0.7612290000    -0.5411560000 
 C        6.2663800000    -0.5402480000     1.6071690000 
 O        5.1614330000     1.3218530000     0.5406320000 
 H        2.7032040000     1.0300050000     4.3497670000 
 H        2.3830570000    -0.6343580000     3.8047690000 
 H        1.7420700000     0.7451820000     2.8766170000 
 H        2.9115180000    -0.0268710000     0.9476550000 
 H        3.6633160000    -1.3869380000     1.8232440000 
 H        5.9018170000    -0.5498040000    -1.1066560000 
 H        4.1404420000    -0.3952910000    -1.1176090000 
 H        4.9031300000    -1.8435150000    -0.4241970000 
 H        7.1813840000    -0.2970840000     1.0640120000 
 H        6.2364440000    -1.6204850000     1.7730870000 
 H        6.2971250000    -0.0473710000     2.5807220000 
 H        4.9894090000     1.7712620000     1.3756820000 
*
