! RI PBE def2-SVP def2-SVP/J NBO PAL2
% maxcore 2000
% output
    # printlevel mini
    print[ P_Basis ] 0
    print[ P_SCFInfo ] 1
    print[ P_SCFIterInfo ] 1
    print[ P_OrbEn ] 0
    print[ P_Cartesian ] 0
end
*xyz 0 1
 C        1.8213520000    -3.1423170000    -0.4714870000 
 O        3.1527130000    -2.7289460000    -0.3231250000 
 C        3.2853290000    -1.6457880000     0.5572050000 
 C        4.7578450000    -1.2770520000     0.6913740000 
 C        4.9521260000     0.0309950000     1.4321400000 
 C        5.5210190000    -2.4156220000     1.3222750000 
 O        6.2712260000    -2.2963480000     2.2533450000 
 H        1.8123530000    -3.9767690000    -1.1725290000 
 H        1.1926570000    -2.3343760000    -0.8705700000 
 H        1.3936860000    -3.4743110000     0.4844010000 
 H        2.8657010000    -1.8981990000     1.5449560000 
 H        2.7263620000    -0.7745230000     0.1823440000 
 H        5.1456670000    -1.1968210000    -0.3346880000 
 H        4.5254900000    -0.0208120000     2.4365860000 
 H        4.4746600000     0.8542280000     0.8968860000 
 H        6.0122350000     0.2568250000     1.5459770000 
 H        5.3423890000    -3.4072650000     0.8600210000 
*
