! RI PBE def2-SVP def2-SVP/J NBO PAL2
% maxcore 2000
% output
    # printlevel mini
    print[ P_Basis ] 0
    print[ P_SCFInfo ] 1
    print[ P_SCFIterInfo ] 1
    print[ P_OrbEn ] 0
    print[ P_Cartesian ] 0
end
*xyz 0 1
 C        0.9322290000     0.0282440000     0.1130580000 
 O        2.3341200000     0.0108790000     0.1237010000 
 C        2.8354010000    -1.3007400000     0.0870830000 
 C        4.2868420000    -1.2960790000     0.1014500000 
 C        5.4891670000    -1.3054730000     0.1184010000 
 C        6.9451920000    -1.3418830000     0.1182120000 
 O        7.5202840000    -1.2344380000    -1.1667220000 
 H        0.6207910000     1.0719170000     0.1427960000 
 H        0.5143180000    -0.4936630000     0.9855080000 
 H        0.5284730000    -0.4384910000    -0.7965460000 
 H        2.4821380000    -1.8218140000    -0.8175560000 
 H        2.4651220000    -1.8776210000     0.9500140000 
 H        7.2760690000    -2.2588690000     0.6262090000 
 H        7.3320620000    -0.4990080000     0.6968190000 
 H        7.0691240000    -1.8537930000    -1.7464860000 
*
