! RI PBE def2-SVP def2-SVP/J NBO PAL2
% maxcore 2000
% output
    # printlevel mini
    print[ P_Basis ] 0
    print[ P_SCFInfo ] 1
    print[ P_SCFIterInfo ] 1
    print[ P_OrbEn ] 0
    print[ P_Cartesian ] 0
end
*xyz 0 1
 C        0.9307260000    -0.0328050000     0.1861820000 
 O        2.3349340000     0.0024860000     0.1868800000 
 C        2.8208360000     1.2545830000    -0.2107430000 
 C        4.2695020000     1.2684430000    -0.2030870000 
 C        5.4730920000     1.3288360000    -0.2122210000 
 C        6.9106630000     1.3299980000    -0.2007920000 
 O        7.5910840000     2.2779960000    -0.4991990000 
 H        0.6341230000    -1.0315710000     0.5035920000 
 H        0.5233830000     0.1600950000    -0.8156340000 
 H        0.5088530000     0.7042490000     0.8829970000 
 H        2.4568180000     2.0507850000     0.4591950000 
 H        2.4708700000     1.5106960000    -1.2242530000 
 H        7.3617370000     0.3686290000     0.1111630000 
*
