! RI PBE def2-SVP def2-SVP/J NBO PAL2
% maxcore 2000
% output
    # printlevel mini
    print[ P_Basis ] 0
    print[ P_SCFInfo ] 1
    print[ P_SCFIterInfo ] 1
    print[ P_OrbEn ] 0
    print[ P_Cartesian ] 0
end
*xyz 0 1
 C        0.9273780000     1.8548770000    -0.8400910000 
 O        2.3100950000     1.9539910000    -1.0509970000 
 C        2.9563080000     0.6974940000    -1.0381100000 
 C        4.4363440000     0.8828700000    -1.2910080000 
 C        4.7901290000     1.5939260000    -2.5980160000 
 C        4.1763400000     0.9435370000    -3.8279070000 
 O        4.4732830000     2.9709060000    -2.5379150000 
 H        0.5147970000     2.8634340000    -0.8640700000 
 H        0.7066280000     1.4022060000     0.1356870000 
 H        0.4445730000     1.2515530000    -1.6206920000 
 H        2.5060870000     0.0459610000    -1.8017740000 
 H        2.7979470000     0.2110270000    -0.0641720000 
 H        4.9000780000    -0.1092950000    -1.2803420000 
 H        4.8755220000     1.4524850000    -0.4665420000 
 H        5.8803250000     1.5565300000    -2.7008650000 
 H        3.0854350000     1.0114920000    -3.8080100000 
 H        4.4546680000    -0.1117550000    -3.9048470000 
 H        4.5235140000     1.4579860000    -4.7253040000 
 H        3.5841270000     3.0331740000    -2.1674260000 
*
