! RI PBE def2-SVP def2-SVP/J NBO PAL2
% maxcore 2000
% output
    # printlevel mini
    print[ P_Basis ] 0
    print[ P_SCFInfo ] 1
    print[ P_SCFIterInfo ] 1
    print[ P_OrbEn ] 0
    print[ P_Cartesian ] 0
end
*xyz 0 1
 C        1.1341720000    -1.4166980000     1.4730960000 
 O        2.5206790000    -1.5665090000     1.3510560000 
 C        2.9633420000    -1.4243640000     0.0222170000 
 C        4.4622480000    -1.6279600000    -0.0185530000 
 C        4.8916460000    -3.0089720000     0.4418440000 
 C        4.6335960000    -4.1147700000    -0.5351150000 
 O        4.1839100000    -3.9734600000    -1.6403720000 
 H        0.8777110000    -1.5488270000     2.5246920000 
 H        0.5926420000    -2.1648130000     0.8772920000 
 H        0.8064550000    -0.4181970000     1.1507970000 
 H        2.7126090000    -0.4202130000    -0.3523090000 
 H        2.4576860000    -2.1530920000    -0.6270140000 
 H        4.9332300000    -0.8728150000     0.6166350000 
 H        4.8051010000    -1.4575450000    -1.0425050000 
 H        4.4043950000    -3.2785910000     1.3866700000 
 H        5.9676350000    -3.0431130000     0.6604630000 
 H        4.9071450000    -5.1291710000    -0.1686070000 
*
