! RI PBE def2-SVP def2-SVP/J NBO PAL2
% maxcore 2000
% output
    # printlevel mini
    print[ P_Basis ] 0
    print[ P_SCFInfo ] 1
    print[ P_SCFIterInfo ] 1
    print[ P_OrbEn ] 0
    print[ P_Cartesian ] 0
end
*xyz 0 1
 C        1.4704020000    -0.0253890000     0.9533650000 
 O        2.8501020000     0.0697650000     0.7138720000 
 C        3.3405560000    -0.9019070000    -0.1144360000 
 C        4.6378270000    -0.9401580000    -0.4328230000 
 C        5.6486690000     0.0305750000     0.0592480000 
 O        5.1943190000    -1.8765840000    -1.2500410000 
 C        4.3455970000    -2.8555760000    -1.7845080000 
 H        1.2041940000     0.7949230000     1.6191640000 
 H        1.2100910000    -0.9752360000     1.4377310000 
 H        0.8928570000     0.0686050000     0.0248230000 
 H        2.6186670000    -1.6202560000    -0.4844090000 
 H        5.1852550000     0.7696760000     0.7097210000 
 H        6.1239420000     0.5432950000    -0.7818620000 
 H        6.4359710000    -0.4887290000     0.6130630000 
 H        4.9663240000    -3.5030070000    -2.4023510000 
 H        3.5588880000    -2.4084260000    -2.4052270000 
 H        3.8746470000    -3.4528510000    -0.9935500000 
*
