! RI PBE def2-SVP def2-SVP/J NBO PAL2
% maxcore 2000
% output
    # printlevel mini
    print[ P_Basis ] 0
    print[ P_SCFInfo ] 1
    print[ P_SCFIterInfo ] 1
    print[ P_OrbEn ] 0
    print[ P_Cartesian ] 0
end
*xyz 0 1
 C        0.5617160000     0.7841830000     1.6125850000 
 O        1.9334610000     1.0374010000     1.5004840000 
 C        2.7053930000    -0.1312620000     1.6747770000 
 C        4.1410960000     0.1738850000     1.4482690000 
 C        5.0390660000     0.0449800000     2.4232030000 
 O        6.3625840000     0.2652710000     2.3699940000 
 C        6.8802270000     0.7115700000     1.1383340000 
 H        0.0377840000     1.7275560000     1.4563030000 
 H        0.3003320000     0.3945790000     2.6072210000 
 H        0.2199630000     0.0587160000     0.8599310000 
 H        2.3568200000    -0.8993140000     0.9643160000 
 H        2.5563590000    -0.5387930000     2.6871560000 
 H        4.4212170000     0.5125120000     0.4575470000 
 H        4.7497840000    -0.2814720000     3.4176830000 
 H        7.9518450000     0.8394400000     1.2805550000 
 H        6.4315880000     1.6669880000     0.8463900000 
 H        6.7000750000    -0.0239620000     0.3467420000 
*
