! RI PBE def2-SVP def2-SVP/J NBO PAL2
% maxcore 2000
% output
    # printlevel mini
    print[ P_Basis ] 0
    print[ P_SCFInfo ] 1
    print[ P_SCFIterInfo ] 1
    print[ P_OrbEn ] 0
    print[ P_Cartesian ] 0
end
*xyz 0 1
 C        3.9701750000     1.0651400000    -0.6797150000 
 O        2.8598330000     0.3306750000    -0.2309980000 
 C        3.1048100000    -0.6254850000     0.6883540000 
 C        4.2842400000    -0.9470210000     1.2150910000 
 O        4.3487120000    -1.9512520000     2.1425150000 
 C        5.5605030000    -2.2533580000     2.6574120000 
 C        5.7307110000    -3.2077070000     3.5602740000 
 H        3.5978770000     1.7835710000    -1.4078350000 
 H        4.7093370000     0.4108760000    -1.1579970000 
 H        4.4502680000     1.6006980000     0.1484560000 
 H        2.2033370000    -1.1475980000     0.9850710000 
 H        5.2219640000    -0.4663320000     0.9632970000 
 H        6.3874120000    -1.6568370000     2.2777270000 
 H        4.8999900000    -3.7945040000     3.9303370000 
 H        6.7224990000    -3.4078660000     3.9388110000 
*
