! RI PBE def2-SVP def2-SVP/J NBO PAL2
% maxcore 2000
% output
    # printlevel mini
    print[ P_Basis ] 0
    print[ P_SCFInfo ] 1
    print[ P_SCFIterInfo ] 1
    print[ P_OrbEn ] 0
    print[ P_Cartesian ] 0
end
*xyz 0 1
 C        1.0841540000    -0.2891300000    -0.1207790000 
 O        2.4446650000    -0.0434580000     0.1613010000 
 C        2.9131070000     1.1415100000    -0.4320870000 
 C        2.3744640000     2.3575570000     0.3330230000 
 O        1.8470430000     3.2962790000    -0.1856120000 
 C        4.3648290000     1.1842410000    -0.3684620000 
 C        5.5575960000     1.2838740000    -0.2922590000 
 H        0.8275060000    -1.2270920000     0.3693710000 
 H        0.9158510000    -0.3881600000    -1.2003760000 
 H        0.4301360000     0.5032440000     0.2635860000 
 H        2.5804090000     1.2283300000    -1.4766930000 
 H        2.5069410000     2.2759550000     1.4322170000 
 H        6.6182770000     1.3568200000    -0.2339790000 
*
