! RI PBE def2-SVP def2-SVP/J NBO PAL2
% maxcore 2000
% output
    # printlevel mini
    print[ P_Basis ] 0
    print[ P_SCFInfo ] 1
    print[ P_SCFIterInfo ] 1
    print[ P_OrbEn ] 0
    print[ P_Cartesian ] 0
end
*xyz 0 1
 C        2.5954910000     0.4698960000     0.2666490000 
 O        2.2231160000    -0.6877340000    -0.4364270000 
 C        3.2092250000    -1.4664150000    -0.9667180000 
 C        2.5572850000    -2.5913680000    -1.7101290000 
 O        1.6484640000    -2.1315790000    -2.6863610000 
 C        4.5162430000    -1.2436870000    -0.8207880000 
 C        5.6269720000    -2.0576650000    -1.3970590000 
 H        1.6705410000     0.9591730000     0.5686670000 
 H        3.1784110000     1.1485630000    -0.3656630000 
 H        3.1811640000     0.2224940000     1.1589580000 
 H        2.0473950000    -3.2385800000    -0.9804600000 
 H        3.2993720000    -3.1952540000    -2.2277110000 
 H        1.0856560000    -1.4804590000    -2.2563200000 
 H        4.8289050000    -0.3941070000    -0.2224090000 
 H        5.2766230000    -2.8542250000    -2.0526200000 
 H        6.2279320000    -2.5210440000    -0.6075840000 
 H        6.3064040000    -1.4274280000    -1.9791340000 
*
