! RI PBE def2-SVP def2-SVP/J NBO PAL2
% maxcore 2000
% output
    # printlevel mini
    print[ P_Basis ] 0
    print[ P_SCFInfo ] 1
    print[ P_SCFIterInfo ] 1
    print[ P_OrbEn ] 0
    print[ P_Cartesian ] 0
end
*xyz 0 1
 C        4.7261190000    -1.5503910000    -2.4088080000 
 O        3.9121980000    -2.5590930000    -1.8680480000 
 C        3.7288520000    -2.4716500000    -0.4636390000 
 C        2.6258950000    -3.4721130000    -0.1500210000 
 O        2.9642130000    -4.7747030000    -0.5558150000 
 C        4.9926040000    -2.7660930000     0.2832430000 
 C        5.5990430000    -1.9026220000     1.0847730000 
 H        4.7701650000    -1.7161130000    -3.4853730000 
 H        5.7417580000    -1.5780960000    -1.9984940000 
 H        4.3010820000    -0.5553310000    -2.2193620000 
 H        3.3756440000    -1.4625490000    -0.1976310000 
 H        1.7028430000    -3.1315150000    -0.6393410000 
 H        2.4527440000    -3.5033770000     0.9276600000 
 H        3.2120620000    -4.7154890000    -1.4843740000 
 H        5.3953490000    -3.7657330000     0.1422640000 
 H        5.2081680000    -0.9004850000     1.2372840000 
 H        6.5014600000    -2.1635370000     1.6259710000 
*
