! RI PBE def2-SVP def2-SVP/J NBO PAL2
% maxcore 2000
% output
    # printlevel mini
    print[ P_Basis ] 0
    print[ P_SCFInfo ] 1
    print[ P_SCFIterInfo ] 1
    print[ P_OrbEn ] 0
    print[ P_Cartesian ] 0
end
*xyz 0 1
 C        0.9610750000    -0.1577200000     0.3105930000 
 O        2.3589150000    -0.0427790000     0.3065950000 
 C        2.9529600000    -0.8002610000    -0.7060730000 
 C        4.4643200000    -0.6778710000    -0.7102120000 
 O        5.0883790000    -1.2910070000    -1.5454120000 
 C        5.1074320000     0.1869370000     0.3079510000 
 C        6.4291050000     0.3196720000     0.3363900000 
 H        0.5833760000     0.4604650000     1.1247810000 
 H        0.6444520000    -1.1968580000     0.4737920000 
 H        0.5269780000     0.1927170000    -0.6356890000 
 H        2.5994790000    -0.4901350000    -1.7015640000 
 H        2.7142860000    -1.8700030000    -0.6020710000 
 H        4.4622580000     0.6951210000     1.0132080000 
 H        7.0444260000    -0.2054220000    -0.3869410000 
 H        6.9231570000     0.9454450000     1.0701520000 
*
