! RI PBE def2-SVP def2-SVP/J NBO PAL2
% maxcore 2000
% output
    # printlevel mini
    print[ P_Basis ] 0
    print[ P_SCFInfo ] 1
    print[ P_SCFIterInfo ] 1
    print[ P_OrbEn ] 0
    print[ P_Cartesian ] 0
end
*xyz 0 1
 C        3.4619260000    -0.9492480000    -0.8011370000 
 O        2.8670140000    -0.1224110000     0.1700720000 
 C        3.2767680000     1.2043790000     0.0822680000 
 C        4.6598280000     1.5034970000     0.6446970000 
 O        5.2568320000     2.5052020000     0.3359340000 
 C        5.1967990000     0.5602960000     1.6064520000 
 C        5.6488450000    -0.2109040000     2.4092190000 
 H        3.0616600000    -1.9523270000    -0.6580130000 
 H        4.5532510000    -0.9870520000    -0.6955460000 
 H        3.2171540000    -0.6058120000    -1.8148540000 
 H        2.5732320000     1.8031210000     0.6718550000 
 H        3.2566300000     1.5873430000    -0.9472580000 
 H        6.0562530000    -0.8883950000     3.1235020000 
*
