! RI PBE def2-SVP def2-SVP/J NBO PAL2
% maxcore 2000
% output
    # printlevel mini
    print[ P_Basis ] 0
    print[ P_SCFInfo ] 1
    print[ P_SCFIterInfo ] 1
    print[ P_OrbEn ] 0
    print[ P_Cartesian ] 0
end
*xyz 0 1
 C        1.9786710000     2.0752420000     1.0928840000 
 O        3.2588970000     1.5697330000     1.3579440000 
 C        3.2931310000     0.1646560000     1.4173470000 
 C        4.7428120000    -0.2543040000     1.5948560000 
 O        5.5193620000     0.2455120000     0.5226290000 
 C        5.2973970000     0.1763210000     2.9199690000 
 C        5.7380040000    -0.6626480000     3.8450940000 
 H        2.0551270000     3.1618140000     1.0491120000 
 H        1.2683580000     1.7998200000     1.8837610000 
 H        1.5923210000     1.7044260000     0.1338510000 
 H        2.9049970000    -0.2618420000     0.4804280000 
 H        2.6803540000    -0.2063360000     2.2513300000 
 H        4.7891780000    -1.3459340000     1.5286050000 
 H        5.2647170000     1.1681500000     0.4085270000 
 H        5.3265880000     1.2494460000     3.0935950000 
 H        5.7230180000    -1.7370440000     3.6865880000 
 H        6.1329580000    -0.3127130000     4.7919600000 
*
