! RI PBE def2-SVP def2-SVP/J NBO PAL2
% maxcore 2000
% output
    # printlevel mini
    print[ P_Basis ] 0
    print[ P_SCFInfo ] 1
    print[ P_SCFIterInfo ] 1
    print[ P_OrbEn ] 0
    print[ P_Cartesian ] 0
end
*xyz 0 1
 C        1.3110570000     0.4723530000     0.0543100000 
 O        2.6960140000     0.3840940000    -0.1433140000 
 C        3.0455760000    -0.4946530000    -1.1764300000 
 C        4.5580010000    -0.4399040000    -1.3383570000 
 O        4.9811780000     0.8746160000    -1.6140860000 
 C        5.2449180000    -1.0136800000    -0.1769810000 
 C        5.8102730000    -1.4870880000     0.7695840000 
 H        1.1395240000     1.1828550000     0.8628160000 
 H        0.8849090000    -0.4991190000     0.3379490000 
 H        0.7982990000     0.8280520000    -0.8497540000 
 H        2.5827130000    -0.1786240000    -2.1228520000 
 H        2.7233710000    -1.5213250000    -0.9516360000 
 H        4.8208070000    -1.0342500000    -2.2196700000 
 H        4.6238650000     1.4284520000    -0.9104940000 
 H        6.3163950000    -1.9000880000     1.6099260000 
*
