! RI PBE def2-SVP def2-SVP/J NBO PAL2
% maxcore 2000
% output
    # printlevel mini
    print[ P_Basis ] 0
    print[ P_SCFInfo ] 1
    print[ P_SCFIterInfo ] 1
    print[ P_OrbEn ] 0
    print[ P_Cartesian ] 0
end
*xyz 0 1
 C        1.3419540000     0.7679520000     0.7245360000 
 O        2.7062170000     1.1674400000     0.7976470000 
 C        3.5045340000     0.6468860000    -0.1449970000 
 O        3.1157380000    -0.1062150000    -1.0011420000 
 C        4.8966620000     1.1152270000     0.0086680000 
 C        5.9907020000     0.1487370000    -0.3704770000 
 C        5.7000580000     1.3022510000    -1.2538960000 
 H        0.8404220000     1.2704830000     1.5488120000 
 H        1.2515680000    -0.3144570000     0.8262850000 
 H        0.9033790000     1.0679460000    -0.2282600000 
 H        5.0745370000     1.7917130000     0.8334010000 
 H        5.6647580000    -0.8284430000    -0.7027980000 
 H        6.8869630000     0.1660700000     0.2359790000 
 H        5.1785200000     1.1014210000    -2.1808130000 
 H        6.3909000000     2.1351980000    -1.2720440000 
*
