! RI PBE def2-SVP def2-SVP/J NBO PAL2
% maxcore 2000
% output
    # printlevel mini
    print[ P_Basis ] 0
    print[ P_SCFInfo ] 1
    print[ P_SCFIterInfo ] 1
    print[ P_OrbEn ] 0
    print[ P_Cartesian ] 0
end
*xyz 0 1
 C        1.6325650000     0.1697730000     2.5247150000 
 O        3.0072050000     0.1249960000     2.1572050000 
 C        3.3682000000     0.9688090000     1.1786770000 
 O        2.5929830000     1.7019470000     0.6251940000 
 C        4.8531690000     0.8939290000     0.9096010000 
 C        5.1720130000     1.3563750000    -0.5009940000 
 C        5.5869840000     1.7283960000     1.9612100000 
 H        1.5115960000    -0.5657830000     3.3171000000 
 H        0.9982000000    -0.0797020000     1.6730240000 
 H        1.3616350000     1.1640920000     2.8830200000 
 H        5.1485670000    -0.1519970000     1.0382770000 
 H        4.8462180000     2.3872010000    -0.6500400000 
 H        4.6691720000     0.7397120000    -1.2482810000 
 H        6.2481330000     1.3026760000    -0.6798080000 
 H        5.2985960000     2.7799820000     1.8863760000 
 H        6.6656750000     1.6626070000     1.8037750000 
 H        5.3677790000     1.3802750000     2.9720400000 
*
