! RI PBE def2-SVP def2-SVP/J NBO PAL2
% maxcore 2000
% output
    # printlevel mini
    print[ P_Basis ] 0
    print[ P_SCFInfo ] 1
    print[ P_SCFIterInfo ] 1
    print[ P_OrbEn ] 0
    print[ P_Cartesian ] 0
end
*xyz 0 1
 C        2.2199570000     2.2724550000    -2.5350910000 
 O        3.5147940000     1.6905810000    -2.4503100000 
 C        3.7956960000     1.0954570000    -1.2839370000 
 O        3.0164550000     1.0496820000    -0.3655190000 
 C        5.1577790000     0.4973600000    -1.2290870000 
 C        5.4968280000    -0.1726460000     0.0612180000 
 C        5.9850240000     0.5720100000    -2.2686740000 
 H        2.1539760000     2.7072680000    -3.5301660000 
 H        2.0928770000     3.0430180000    -1.7731210000 
 H        1.4469890000     1.5146310000    -2.3981680000 
 H        4.7888830000    -0.9759810000     0.2786330000 
 H        5.4260280000     0.5312620000     0.8938680000 
 H        6.5051360000    -0.5858120000     0.0292220000 
 H        5.6964920000     1.0683000000    -3.1857390000 
 H        6.9758970000     0.1339140000    -2.2215390000 
*
