! RI PBE def2-SVP def2-SVP/J NBO PAL2
% maxcore 2000
% output
    # printlevel mini
    print[ P_Basis ] 0
    print[ P_SCFInfo ] 1
    print[ P_SCFIterInfo ] 1
    print[ P_OrbEn ] 0
    print[ P_Cartesian ] 0
end
*xyz 0 1
 C        1.0274130000     0.3546130000    -0.1847580000 
 O        2.4511260000     0.3005970000    -0.2000690000 
 C        2.9640670000    -0.8818480000    -0.5585640000 
 O        2.3053950000    -1.8444300000    -0.8515610000 
 C        4.4043640000    -0.8529950000    -0.5482510000 
 C        5.6062200000    -0.8890590000    -0.5567230000 
 C        7.0516630000    -0.9316180000    -0.5693440000 
 H        0.7748350000     1.3669030000     0.1221800000 
 H        0.6230520000    -0.3718090000     0.5215580000 
 H        0.6243240000     0.1432720000    -1.1761850000 
 H        7.4129630000    -1.9601450000    -0.5010510000 
 H        7.4648130000    -0.3621620000     0.2664160000 
 H        7.4359750000    -0.4972280000    -1.4957380000 
*
