! RI PBE def2-SVP def2-SVP/J NBO PAL2
% maxcore 2000
% output
    # printlevel mini
    print[ P_Basis ] 0
    print[ P_SCFInfo ] 1
    print[ P_SCFIterInfo ] 1
    print[ P_OrbEn ] 0
    print[ P_Cartesian ] 0
end
*xyz 0 1
 C        2.6287160000     1.5621690000     0.0661240000 
 O        3.7379750000     0.6670650000     0.0646040000 
 C        3.6502160000    -0.3470880000    -0.8057020000 
 O        2.7262650000    -0.5220480000    -1.5442910000 
 C        4.8910360000    -1.2116180000    -0.6913590000 
 C        4.9185010000    -2.3375750000    -1.6007100000 
 C        4.9616760000    -3.2755830000    -2.3451750000 
 H        2.8549590000     2.3135000000     0.8192210000 
 H        1.7093830000     1.0323680000     0.3186770000 
 H        2.5101800000     2.0266040000    -0.9136290000 
 H        4.9614910000    -1.5519890000     0.3471690000 
 H        5.7611670000    -0.5657790000    -0.8484790000 
 H        4.9892350000    -4.1055270000    -3.0107410000 
*
