! RI PBE def2-SVP def2-SVP/J NBO PAL2
% maxcore 2000
% output
    # printlevel mini
    print[ P_Basis ] 0
    print[ P_SCFInfo ] 1
    print[ P_SCFIterInfo ] 1
    print[ P_OrbEn ] 0
    print[ P_Cartesian ] 0
end
*xyz 0 1
 C        5.9894630000    -0.6597240000    -0.7376870000 
 O        4.6583280000    -0.4799920000    -0.3020670000 
 C        4.4562290000    -0.6942200000     1.0729280000 
 O        4.7221060000    -2.0044910000     1.4572040000 
 C        3.8199750000    -2.9412450000     0.9167900000 
 C        5.2594030000     0.2506090000     1.9169480000 
 C        5.9882510000    -0.0902400000     2.9671360000 
 H        5.9845730000    -0.5065660000    -1.8165850000 
 H        6.3533410000    -1.6680600000    -0.5178940000 
 H        6.6698240000     0.0639620000    -0.2754340000 
 H        3.3842630000    -0.4778850000     1.2044280000 
 H        4.1061830000    -3.9195510000     1.3020860000 
 H        3.8592300000    -2.9562590000    -0.1767300000 
 H        2.7904930000    -2.7215240000     1.2281710000 
 H        5.1837330000     1.2891550000     1.6054420000 
 H        6.0635640000    -1.1236410000     3.2834930000 
 H        6.5280600000     0.6553830000     3.5394720000 
*
