! RI PBE def2-SVP def2-SVP/J NBO PAL2
% maxcore 2000
% output
    # printlevel mini
    print[ P_Basis ] 0
    print[ P_SCFInfo ] 1
    print[ P_SCFIterInfo ] 1
    print[ P_OrbEn ] 0
    print[ P_Cartesian ] 0
end
*xyz 0 1
 C        1.0992450000    -0.2266440000     0.1379460000 
 O        2.4589090000     0.0745760000    -0.0892140000 
 C        2.9392580000    -0.4536160000    -1.2879320000 
 O        2.3696630000     0.1379600000    -2.4170170000 
 C        2.6684380000     1.5101620000    -2.5861850000 
 C        4.4037410000    -0.3475090000    -1.2649460000 
 C        5.6015440000    -0.3024630000    -1.2805090000 
 H        0.8425260000     0.1930950000     1.1096630000 
 H        0.9361370000    -1.3117920000     0.1617150000 
 H        0.4532080000     0.2100580000    -0.6294470000 
 H        2.6577330000    -1.5131050000    -1.3729860000 
 H        2.1185400000     1.8364350000    -3.4678930000 
 H        3.7400740000     1.6634540000    -2.7496020000 
 H        2.3517850000     2.0993470000    -1.7207280000 
 H        6.6652390000    -0.2571380000    -1.2851930000 
*
