! RI PBE def2-SVP def2-SVP/J NBO PAL2
% maxcore 2000
% output
    # printlevel mini
    print[ P_Basis ] 0
    print[ P_SCFInfo ] 1
    print[ P_SCFIterInfo ] 1
    print[ P_OrbEn ] 0
    print[ P_Cartesian ] 0
end
*xyz 0 1
 C        3.4516420000    -0.1504170000     0.5011610000 
 O        2.8656230000    -0.0083220000    -0.7747310000 
 C        3.0864960000     1.2140800000    -1.3537010000 
 O        4.4485940000     1.3240520000    -1.7084130000 
 C        4.8368250000     2.4815790000    -2.2826430000 
 C        4.0910090000     3.5395350000    -2.5959770000 
 C        4.6640200000     4.7597390000    -3.2364630000 
 H        3.1203180000    -1.1096320000     0.8968920000 
 H        3.1199140000     0.6503800000     1.1748990000 
 H        4.5435110000    -0.1393370000     0.4444790000 
 H        2.8341140000     2.0417320000    -0.6689350000 
 H        2.4631930000     1.2675450000    -2.2528160000 
 H        5.9036700000     2.4640450000    -2.4846580000 
 H        3.0249570000     3.5431710000    -2.3940730000 
 H        5.7389990000     4.6540210000    -3.3997970000 
 H        4.5072270000     5.6498300000    -2.6188260000 
 H        4.1978770000     4.9607090000    -4.2062870000 
*
