! RI PBE def2-SVP def2-SVP/J NBO PAL2
% maxcore 2000
% output
    # printlevel mini
    print[ P_Basis ] 0
    print[ P_SCFInfo ] 1
    print[ P_SCFIterInfo ] 1
    print[ P_OrbEn ] 0
    print[ P_Cartesian ] 0
end
*xyz 0 1
 C        4.5039360000     0.5266730000    -0.4173060000 
 O        3.5403590000    -0.4794380000    -0.1933770000 
 C        3.3369760000    -1.3031110000    -1.2700640000 
 O        4.4778370000    -2.1165040000    -1.4555240000 
 C        4.4590500000    -2.9970550000    -2.4821410000 
 C        5.7425050000    -3.7510980000    -2.5436090000 
 C        3.4400730000    -3.1782520000    -3.3251940000 
 H        4.4944590000     1.1752420000     0.4577870000 
 H        4.2512920000     1.1189290000    -1.3064510000 
 H        5.5042860000     0.1033130000    -0.5431130000 
 H        3.1600900000    -0.7292280000    -2.1948150000 
 H        2.4685240000    -1.9298700000    -1.0435760000 
 H        6.5809660000    -3.0629230000    -2.6800530000 
 H        5.7339220000    -4.4662790000    -3.3644990000 
 H        5.9111220000    -4.2869390000    -1.6059170000 
 H        2.5112200000    -2.6289950000    -3.2681020000 
 H        3.5331730000    -3.9141570000    -4.1111460000 
*
