! RI PBE def2-SVP def2-SVP/J NBO PAL2
% maxcore 2000
% output
    # printlevel mini
    print[ P_Basis ] 0
    print[ P_SCFInfo ] 1
    print[ P_SCFIterInfo ] 1
    print[ P_OrbEn ] 0
    print[ P_Cartesian ] 0
end
*xyz 0 1
 C        2.4727230000    -1.3967080000    -2.2726950000 
 O        2.2112430000    -0.0116980000    -2.2665780000 
 C        2.7857000000     0.6513890000    -1.1867200000 
 O        4.1770650000     0.6950730000    -1.2259810000 
 C        4.6881980000     1.5107490000    -2.2651180000 
 C        6.1654320000     1.6113790000    -2.1147060000 
 C        7.0280510000     1.3893430000    -3.0946920000 
 H        1.9471940000    -1.8190870000    -3.1286820000 
 H        2.0999890000    -1.8702400000    -1.3547260000 
 H        3.5429280000    -1.6064680000    -2.3645860000 
 H        2.5364840000     0.1497740000    -0.2429090000 
 H        2.3629540000     1.6640410000    -1.2056690000 
 H        4.2335690000     2.5120980000    -2.1887510000 
 H        4.4257270000     1.1042440000    -3.2482230000 
 H        6.5185640000     1.9027760000    -1.1284470000 
 H        6.6956090000     1.0862800000    -4.0828410000 
 H        8.0955720000     1.5064650000    -2.9493840000 
*
