! RI PBE def2-SVP def2-SVP/J NBO PAL2
% maxcore 2000
% output
    # printlevel mini
    print[ P_Basis ] 0
    print[ P_SCFInfo ] 1
    print[ P_SCFIterInfo ] 1
    print[ P_OrbEn ] 0
    print[ P_Cartesian ] 0
end
*xyz 0 1
 O       -0.0202690000     0.0254150000    -1.2728280000 
 C        0.0229530000    -1.0468510000    -0.3325520000 
 C        1.2643400000    -0.6415830000     0.4829590000 
 C        1.2306060000     0.6815630000     0.5111790000 
 C       -0.0306930000     1.0574570000    -0.2876770000 
 C       -1.2438850000     0.6176100000     0.5519910000 
 C       -1.2101520000    -0.7055350000     0.5237780000 
 H        0.0398000000    -2.0147190000    -0.8276880000 
 H        1.9500220000    -1.3226730000     0.9653290000 
 H        1.8812310000     1.3755200000     1.0228780000 
 H       -0.0636980000     2.0451420000    -0.7411090000 
 H       -1.9122640000     1.2774790000     1.0854410000 
 H       -1.8434730000    -1.4207150000     1.0279080000 
*
