! RI PBE def2-SVP def2-SVP/J NBO PAL2
% maxcore 2000
% output
    # printlevel mini
    print[ P_Basis ] 0
    print[ P_SCFInfo ] 1
    print[ P_SCFIterInfo ] 1
    print[ P_OrbEn ] 0
    print[ P_Cartesian ] 0
end
*xyz 0 1
 O       -1.1515620000     0.7841710000     0.7138920000 
 C       -1.0833360000    -0.3659950000    -0.1118540000 
 C       -0.1762940000    -1.4310330000     0.3023630000 
 C        1.1288730000    -1.1770200000     0.5046760000 
 C        1.7188390000     0.0794900000     0.1183820000 
 C        0.9882790000     1.0492710000    -0.4601690000 
 C       -0.4661420000     0.9485040000    -0.5159800000 
 H       -2.0406840000    -0.6463080000    -0.5445230000 
 H       -0.5739110000    -2.4326950000     0.4217320000 
 H        1.7851860000    -1.9661220000     0.8550790000 
 H        2.7955380000     0.1857250000     0.1935300000 
 H        1.4655040000     1.9108460000    -0.9136210000 
 H       -0.9973010000     1.5758850000    -1.2277070000 
*
