! RI PBE def2-SVP def2-SVP/J NBO PAL2
% maxcore 2000
% output
    # printlevel mini
    print[ P_Basis ] 0
    print[ P_SCFInfo ] 1
    print[ P_SCFIterInfo ] 1
    print[ P_OrbEn ] 0
    print[ P_Cartesian ] 0
end
*xyz 0 1
 O        0.9233330000    -1.3214090000     0.0002820000 
 C       -0.4346190000    -1.4864350000     0.0003240000 
 C       -1.4354800000    -0.6105670000     0.0000270000 
 C       -1.4121610000     0.8518950000    -0.0004830000 
 C       -0.3207870000     1.6162680000    -0.0002590000 
 C        1.0615620000     1.1383030000     0.0005390000 
 C        1.5425760000    -0.1016520000     0.0007290000 
 H       -0.6463120000    -2.5489260000     0.0006370000 
 H       -2.4149200000    -1.0759110000     0.0001430000 
 H       -2.3815640000     1.3383710000    -0.0010740000 
 H       -0.4466160000     2.6935650000    -0.0006760000 
 H        1.8336560000     1.8996950000     0.0010150000 
 H        2.6134310000    -0.2658760000     0.0013060000 
*
