! RI PBE def2-SVP def2-SVP/J NBO PAL2
% maxcore 2000
% output
    # printlevel mini
    print[ P_Basis ] 0
    print[ P_SCFInfo ] 1
    print[ P_SCFIterInfo ] 1
    print[ P_OrbEn ] 0
    print[ P_Cartesian ] 0
end
*xyz 0 1
 O        1.7531120000     0.5063050000     1.0769340000 
 C        2.7096920000     0.0581270000     0.1729970000 
 C        3.3602230000     1.0416900000    -0.7438310000 
 C        4.1525010000     0.4180310000     0.3886450000 
 C        4.9187960000    -0.7979480000     0.0278950000 
 C        4.1126270000    -1.7854980000    -0.3585700000 
 C        2.6639630000    -1.3995770000    -0.2557820000 
 H        0.9722150000     0.7720330000     0.5832720000 
 H        3.0667340000     2.0762140000    -0.6067710000 
 H        3.6064820000     0.7506960000    -1.7591670000 
 H        4.4511910000     1.0559090000     1.2112910000 
 H        6.0007800000    -0.8491780000     0.0557370000 
 H        4.4395620000    -2.7582630000    -0.7057860000 
 H        2.1448250000    -1.9902800000     0.5086310000 
 H        2.1217880000    -1.5457600000    -1.1965940000 
*
