! RI PBE def2-SVP def2-SVP/J NBO PAL2
% maxcore 2000
% output
    # printlevel mini
    print[ P_Basis ] 0
    print[ P_SCFInfo ] 1
    print[ P_SCFIterInfo ] 1
    print[ P_OrbEn ] 0
    print[ P_Cartesian ] 0
end
*xyz 0 1
 O        0.9888090000    -0.0296830000    -0.1075990000 
 C        2.3716770000     0.0707590000    -0.0741670000 
 C        3.3054450000    -0.5380350000    -1.1469670000 
 C        4.3644630000    -0.2935360000    -0.0515890000 
 C        3.2620130000    -0.6441810000     0.9696110000 
 C        4.3916060000     1.2369030000     0.0257050000 
 C        2.8676740000     1.5097890000     0.0081700000 
 H        0.7493350000    -0.9585710000    -0.1570230000 
 H        3.4086160000    -0.0157430000    -2.1013690000 
 H        3.1119330000    -1.6014590000    -1.3066790000 
 H        5.3173970000    -0.8189070000    -0.0583540000 
 H        3.3249890000    -0.2202150000     1.9749030000 
 H        3.0643740000    -1.7178700000     1.0140810000 
 H        4.9098640000     1.6829820000    -0.8259820000 
 H        4.8737150000     1.5945550000     0.9381770000 
 H        2.5403450000     2.0922640000    -0.8552840000 
 H        2.5041450000     2.0036270000     0.9114660000 
*
