! RI PBE def2-SVP def2-SVP/J NBO PAL2
% maxcore 2000
% output
    # printlevel mini
    print[ P_Basis ] 0
    print[ P_SCFInfo ] 1
    print[ P_SCFIterInfo ] 1
    print[ P_OrbEn ] 0
    print[ P_Cartesian ] 0
end
*xyz 0 1
 O        1.6230440000    -0.3164250000    -0.9392770000 
 C        2.7720630000    -0.0417730000    -0.2138900000 
 C        3.5345590000    -1.1252950000     0.4771800000 
 C        4.1140460000    -0.4378510000    -0.7318080000 
 C        5.0164750000     0.7351560000    -0.4606120000 
 O        4.3470510000     1.5064880000     0.5273620000 
 C        2.9558300000     1.3551810000     0.3358030000 
 H        0.9270290000    -0.5620810000    -0.3235610000 
 H        3.1769700000    -2.1356090000     0.3210250000 
 H        3.9672400000    -0.9207170000     1.4507960000 
 H        4.1974400000    -0.9890630000    -1.6592800000 
 H        5.1644520000     1.3179740000    -1.3812160000 
 H        5.9957940000     0.4707560000    -0.0539220000 
 H        2.5599840000     2.0713500000    -0.3997060000 
 H        2.4698140000     1.5327300000     1.2996750000 
*
