! RI PBE def2-SVP def2-SVP/J NBO PAL2
% maxcore 2000
% output
    # printlevel mini
    print[ P_Basis ] 0
    print[ P_SCFInfo ] 1
    print[ P_SCFIterInfo ] 1
    print[ P_OrbEn ] 0
    print[ P_Cartesian ] 0
end
*xyz 0 1
 O        1.0963130000    -0.1329850000    -0.0962950000 
 C        2.4668060000     0.0004550000     0.0159900000 
 C        3.5063450000    -0.5679590000    -0.9852700000 
 C        4.4393880000    -0.1704260000     0.1684230000 
 C        3.3375740000    -0.6222050000     1.1386970000 
 O        4.3449800000     1.2565630000     0.1973730000 
 C        2.9305190000     1.4497110000     0.0898420000 
 H        0.8768470000    -1.0669320000    -0.1398820000 
 H        3.6404840000    -0.0616320000    -1.9422440000 
 H        3.4215700000    -1.6487110000    -1.1093340000 
 H        5.4763900000    -0.4849170000     0.2427550000 
 H        3.2385720000    -1.7074920000     1.1928880000 
 H        3.3169330000    -0.1655690000     2.1292570000 
 H        2.6828120000     2.0167070000    -0.8123200000 
 H        2.5411870000     1.9712920000     0.9691090000 
*
