! RI PBE def2-SVP def2-SVP/J NBO PAL2
% maxcore 2000
% output
    # printlevel mini
    print[ P_Basis ] 0
    print[ P_SCFInfo ] 1
    print[ P_SCFIterInfo ] 1
    print[ P_OrbEn ] 0
    print[ P_Cartesian ] 0
end
*xyz 0 1
 O        1.2466090000    -0.0722260000    -0.6713030000 
 C        2.3264610000     0.1689370000    -0.2588120000 
 C        3.4465020000    -0.5438280000     0.5840550000 
 C        3.5988880000     0.8559430000     1.2311000000 
 C        3.3107960000     1.3935840000    -0.1933990000 
 C        4.4261860000     0.7511300000    -0.9800880000 
 C        4.5132600000    -0.4917330000    -0.4813250000 
 H        3.2828710000    -1.4543870000     1.1531190000 
 H        4.5924760000     1.0828410000     1.6231020000 
 H        2.8110210000     1.0899710000     1.9518280000 
 H        3.0116990000     2.4170150000    -0.4004170000 
 H        4.9253670000     1.1764390000    -1.8386410000 
 H        5.1007520000    -1.3269840000    -0.8340180000 
*
