! RI PBE def2-SVP def2-SVP/J NBO PAL2
% maxcore 2000
% output
    # printlevel mini
    print[ P_Basis ] 0
    print[ P_SCFInfo ] 1
    print[ P_SCFIterInfo ] 1
    print[ P_OrbEn ] 0
    print[ P_Cartesian ] 0
end
*xyz 0 1
 O        1.1828340000    -0.0036260000     0.0452200000 
 C        2.5830280000     0.0725910000    -0.0283080000 
 C        3.1549680000     1.1167490000    -1.0210690000 
 C        2.7657090000     0.1168080000    -2.1330070000 
 C        3.1508220000    -0.9244190000    -1.0561480000 
 C        4.6510160000    -0.6873270000    -0.9030020000 
 C        4.6543880000     0.8688380000    -0.8701850000 
 H        0.8605240000     0.7855740000     0.4875050000 
 H        3.0314100000     0.0536580000     0.9754050000 
 H        2.8088180000     2.1516220000    -1.0209620000 
 H        3.3481150000     0.1329040000    -3.0576410000 
 H        1.6990370000     0.1195150000    -2.3450810000 
 H        2.7927320000    -1.9528140000    -1.0872790000 
 H        5.2178480000    -1.0924500000    -1.7434710000 
 H        5.0509610000    -1.1253870000     0.0145270000 
 H        5.2301570000     1.3075870000    -1.6875820000 
 H        5.0496330000     1.2648570000     0.0686780000 
*
