! RI PBE def2-SVP def2-SVP/J NBO PAL2
% maxcore 2000
% output
    # printlevel mini
    print[ P_Basis ] 0
    print[ P_SCFInfo ] 1
    print[ P_SCFIterInfo ] 1
    print[ P_OrbEn ] 0
    print[ P_Cartesian ] 0
end
*xyz 0 1
 O        1.2136310000     0.0304630000     0.1654370000 
 C        2.4058300000     0.0241440000     0.1833190000 
 C        3.5172160000     1.0700010000     0.1132940000 
 C        4.1456140000     0.0519680000    -0.8798350000 
 C        3.5071790000    -1.0251280000     0.0420370000 
 C        4.2792150000    -0.8047280000     1.3473890000 
 C        4.2866890000     0.7540440000     1.4004010000 
 H        3.3250110000     2.1083170000    -0.1442830000 
 H        5.2360170000     0.0486720000    -0.9365380000 
 H        3.7010620000     0.0879170000    -1.8741680000 
 H        3.3051280000    -2.0416570000    -0.2854280000 
 H        5.2860470000    -1.2228310000     1.2922220000 
 H        3.7750440000    -1.2511720000     2.2061930000 
 H        5.2974970000     1.1652680000     1.3734340000 
 H        3.7865400000     1.1459200000     2.2877160000 
*
