! RI PBE def2-SVP def2-SVP/J NBO PAL2
% maxcore 2000
% output
    # printlevel mini
    print[ P_Basis ] 0
    print[ P_SCFInfo ] 1
    print[ P_SCFIterInfo ] 1
    print[ P_OrbEn ] 0
    print[ P_Cartesian ] 0
end
*xyz 0 1
 O        0.7709670000     0.1182500000    -0.6357580000 
 C        2.0292140000     0.0264420000    -0.0542190000 
 C        3.0050630000    -1.0646570000    -0.4293640000 
 C        2.7397100000    -1.8279090000    -1.7068920000 
 C        2.5409600000    -0.7358440000    -2.7657190000 
 O        3.1267190000     0.4547420000    -2.2523830000 
 C        3.2360170000     0.3536950000    -0.8723200000 
 H        0.2083180000    -0.5556020000    -0.2439720000 
 H        2.0780640000     0.3521610000     0.9843360000 
 H        3.5921970000    -1.5372630000     0.3486350000 
 H        1.8673200000    -2.4841400000    -1.6495170000 
 H        3.6084910000    -2.4514170000    -1.9316430000 
 H        1.4778660000    -0.5657850000    -2.9485960000 
 H        3.0335850000    -0.9654910000    -3.7136120000 
 H        4.0058080000     1.0003280000    -0.4697770000 
*
