! RI PBE def2-SVP def2-SVP/J NBO PAL2
% maxcore 2000
% output
    # printlevel mini
    print[ P_Basis ] 0
    print[ P_SCFInfo ] 1
    print[ P_SCFIterInfo ] 1
    print[ P_OrbEn ] 0
    print[ P_Cartesian ] 0
end
*xyz 0 1
 O        1.1075710000    -0.1536210000     0.0302820000 
 C        2.5036280000    -0.0608510000    -0.0100300000 
 C        3.0957630000     0.9728920000    -1.0153570000 
 C        2.7135110000    -0.0394440000    -2.1247720000 
 C        3.1287740000    -1.0302700000    -1.0280640000 
 O        4.5229720000    -0.7878480000    -0.8584880000 
 C        4.5699550000     0.6522040000    -0.8446770000 
 H        0.7640580000     0.6128930000     0.4958240000 
 H        2.9482740000    -0.0821030000     0.9926430000 
 H        2.7969830000     2.0207500000    -1.0300190000 
 H        3.3006060000    -0.0436550000    -3.0443210000 
 H        1.6452230000    -0.0526800000    -2.3253310000 
 H        2.9239790000    -2.0981490000    -1.0456870000 
 H        5.1964890000     1.0161320000    -1.6649210000 
 H        4.9865040000     0.9999500000     0.1063170000 
*
