! RI PBE def2-SVP def2-SVP/J NBO PAL2
% maxcore 2000
% output
    # printlevel mini
    print[ P_Basis ] 0
    print[ P_SCFInfo ] 1
    print[ P_SCFIterInfo ] 1
    print[ P_OrbEn ] 0
    print[ P_Cartesian ] 0
end
*xyz 0 1
 O        1.2293200000     0.0591950000     0.0012520000 
 C        2.4167560000     0.0460690000     0.0600980000 
 C        3.5509830000     1.0801930000    -0.0089390000 
 C        4.1694270000     0.0499270000    -1.0001340000 
 C        3.5579800000    -0.9779190000    -0.0250760000 
 O        4.2727120000    -0.7418990000     1.1840780000 
 C        4.2980850000     0.7015260000     1.2645590000 
 H        3.3913950000     2.1296220000    -0.2384510000 
 H        5.2580380000     0.0330580000    -1.0662000000 
 H        3.7013700000     0.0603140000    -1.9844520000 
 H        3.4475350000    -2.0395440000    -0.2215210000 
 H        5.3350490000     1.0493330000     1.2794810000 
 H        3.7916610000     1.0329250000     2.1755160000 
*
