! RI PBE def2-SVP def2-SVP/J NBO PAL2
% maxcore 2000
% output
    # printlevel mini
    print[ P_Basis ] 0
    print[ P_SCFInfo ] 1
    print[ P_SCFIterInfo ] 1
    print[ P_OrbEn ] 0
    print[ P_Cartesian ] 0
end
*xyz 0 1
 O        0.8266880000     0.0856380000    -0.1094250000 
 C        2.2037450000     0.0501720000     0.0621400000 
 C        3.0863000000    -0.9282070000    -0.6552390000 
 C        2.5113460000    -1.6681680000    -1.8353850000 
 O        1.9203900000    -0.7075130000    -2.6821750000 
 C        2.4669390000     0.5721360000    -2.4247400000 
 C        3.0775080000     0.5285350000    -1.0462230000 
 H        0.4579480000    -0.7632290000     0.1471460000 
 H        2.5351570000     0.3182530000     1.0641340000 
 H        3.9162910000    -1.3756910000    -0.1218650000 
 H        1.7335870000    -2.3935440000    -1.5703430000 
 H        3.3161920000    -2.2145580000    -2.3487880000 
 H        1.6532450000     1.2968280000    -2.5143910000 
 H        3.2432710000     0.8233250000    -3.1611210000 
 H        3.9049840000     1.1914240000    -0.8264230000 
*
