! RI PBE def2-SVP def2-SVP/J NBO PAL2
% maxcore 2000
% output
    # printlevel mini
    print[ P_Basis ] 0
    print[ P_SCFInfo ] 1
    print[ P_SCFIterInfo ] 1
    print[ P_OrbEn ] 0
    print[ P_Cartesian ] 0
end
*xyz 0 1
 O        1.1454290000    -0.1584700000    -0.8510590000 
 C        2.2207320000    -0.0289470000    -0.3943490000 
 C        3.3453090000    -0.8569730000     0.3533350000 
 O        3.4550050000     0.3191870000     1.1830830000 
 C        3.2670290000     1.0989990000    -0.0170870000 
 C        4.3925640000     0.6457470000    -0.9006710000 
 C        4.4453050000    -0.6722110000    -0.6510620000 
 H        3.1904070000    -1.7911880000     0.8837920000 
 H        3.0327920000     2.1474560000     0.1378630000 
 H        4.9372300000     1.2397890000    -1.6190310000 
 H        5.0446080000    -1.4436080000    -1.1108140000 
*
