! RI PBE def2-SVP def2-SVP/J NBO PAL2
% maxcore 2000
% output
    # printlevel mini
    print[ P_Basis ] 0
    print[ P_SCFInfo ] 1
    print[ P_SCFIterInfo ] 1
    print[ P_OrbEn ] 0
    print[ P_Cartesian ] 0
end
*xyz 0 1
 O        1.3203680000     0.0390990000     1.0794020000 
 C        2.4766840000     0.0207580000     0.3090480000 
 C        2.4076400000     0.7179830000    -1.0096630000 
 O        3.6059470000     1.1252810000    -1.6240210000 
 C        4.3151300000    -0.0102190000    -1.8784730000 
 C        3.6882420000    -1.1419150000    -1.5616460000 
 C        2.3856330000    -0.7978740000    -0.9484940000 
 H        1.2130680000     0.9210260000     1.4478970000 
 H        3.4227010000     0.0062050000     0.8471700000 
 H        1.5542210000     1.3389000000    -1.2506420000 
 H        5.2894090000     0.1518570000    -2.3161260000 
 H        4.0665590000    -2.1390050000    -1.7245080000 
 H        1.4896980000    -1.3838070000    -1.1147240000 
*
