! RI PBE def2-SVP def2-SVP/J NBO PAL2
% maxcore 2000
% output
    # printlevel mini
    print[ P_Basis ] 0
    print[ P_SCFInfo ] 1
    print[ P_SCFIterInfo ] 1
    print[ P_OrbEn ] 0
    print[ P_Cartesian ] 0
end
*xyz 0 1
 O        1.0252100000     0.4352480000    -0.1921490000 
 C        2.3991420000     0.2849620000    -0.0190720000 
 C        3.1232050000    -0.8217090000    -0.7220830000 
 C        3.2439760000     0.6052510000    -1.1954100000 
 C        4.5246040000     1.3453990000    -1.0428030000 
 C        4.6266780000     2.5733740000    -0.2600350000 
 O        5.1178160000     1.3408860000     0.2468160000 
 H        0.5827370000    -0.2312700000     0.3403800000 
 H        2.7861560000     0.5757310000     0.9547220000 
 H        2.5340970000    -1.4945960000    -1.3327670000 
 H        3.9745310000    -1.2638330000    -0.2181740000 
 H        2.6914690000     0.8391850000    -2.0998820000 
 H        5.2412950000     1.2033090000    -1.8517010000 
 H        3.7362730000     2.9542570000     0.2341870000 
 H        5.3883090000     3.3102950000    -0.5019290000 
*
