! RI PBE def2-SVP def2-SVP/J NBO PAL2
% maxcore 2000
% output
    # printlevel mini
    print[ P_Basis ] 0
    print[ P_SCFInfo ] 1
    print[ P_SCFIterInfo ] 1
    print[ P_OrbEn ] 0
    print[ P_Cartesian ] 0
end
*xyz 0 1
 O        0.9451250000     0.3764420000    -0.2637710000 
 C        2.2889140000     0.1524330000     0.0132290000 
 C        3.0654420000    -0.7406940000    -0.9110650000 
 C        3.2557750000     0.7525250000    -0.9427580000 
 C        2.6149630000     0.1300840000     1.4663690000 
 C        1.8222470000     0.8664840000     2.4423320000 
 O        1.6650510000    -0.5415330000     2.2852900000 
 H        0.4494080000    -0.2943350000     0.2206480000 
 H        2.5099640000    -1.1854940000    -1.7264830000 
 H        3.8567320000    -1.3552340000    -0.4983490000 
 H        2.8225040000     1.2920260000    -1.7750990000 
 H        4.1773030000     1.1693740000    -0.5545040000 
 H        3.6538950000    -0.0937460000     1.7047130000 
 H        0.9848940000     1.4638060000     2.0947210000 
 H        2.2773930000     1.1754530000     3.3795960000 
*
