! RI PBE def2-SVP def2-SVP/J NBO PAL2
% maxcore 2000
% output
    # printlevel mini
    print[ P_Basis ] 0
    print[ P_SCFInfo ] 1
    print[ P_SCFIterInfo ] 1
    print[ P_OrbEn ] 0
    print[ P_Cartesian ] 0
end
*xyz 0 1
 O        0.8170640000     0.1980920000    -1.1748090000 
 C        1.8936540000     0.0292490000    -0.3076700000 
 C        2.8017670000    -1.1514430000    -0.4737440000 
 C        3.2490680000     0.2271950000    -0.8805100000 
 C        4.3214890000     0.9474000000    -0.0999170000 
 C        5.7004590000     0.5221520000    -0.4874270000 
 C        6.6007500000     0.0091790000     0.3390010000 
 H        0.1459910000    -0.4521380000    -0.9502060000 
 H        1.7263940000     0.3936820000     0.7049730000 
 H        2.5601960000    -1.8507720000    -1.2648620000 
 H        3.2452890000    -1.5928480000     0.4117440000 
 H        3.2494540000     0.4073310000    -1.9512310000 
 H        4.1761180000     0.7781880000     0.9720550000 
 H        4.2126500000     2.0268080000    -0.2670410000 
 H        5.9588440000     0.6454610000    -1.5382140000 
 H        6.3845970000    -0.1325700000     1.3938490000 
 H        7.5864150000    -0.2837740000    -0.0037990000 
*
