! RI PBE def2-SVP def2-SVP/J NBO PAL2
% maxcore 2000
% output
    # printlevel mini
    print[ P_Basis ] 0
    print[ P_SCFInfo ] 1
    print[ P_SCFIterInfo ] 1
    print[ P_OrbEn ] 0
    print[ P_Cartesian ] 0
end
*xyz 0 1
 O        0.8571270000     0.5986710000    -0.4134780000 
 C        2.1926370000     0.5218420000    -0.0339170000 
 C        3.0563080000    -0.5717680000    -0.5896120000 
 C        3.1970840000     0.8457200000    -1.0762110000 
 C        4.4359260000     1.6384230000    -0.7329690000 
 C        4.2309710000     3.0779730000    -0.7890390000 
 C        4.0500330000     4.2632670000    -0.8436780000 
 H        0.3740550000    -0.0953610000     0.0431480000 
 H        2.4044020000     0.8615470000     0.9788570000 
 H        2.5841610000    -1.2797820000    -1.2594090000 
 H        3.8380640000    -0.9822780000     0.0397440000 
 H        2.7745320000     1.0487630000    -2.0540210000 
 H        5.2486020000     1.3651210000    -1.4154830000 
 H        4.7789510000     1.3642900000     0.2711080000 
 H        3.8871370000     5.3137720000    -0.8909490000 
*
