! RI PBE def2-SVP def2-SVP/J NBO PAL2
% maxcore 2000
% output
    # printlevel mini
    print[ P_Basis ] 0
    print[ P_SCFInfo ] 1
    print[ P_SCFIterInfo ] 1
    print[ P_OrbEn ] 0
    print[ P_Cartesian ] 0
end
*xyz 0 1
 O        1.1009820000     0.2587620000     0.5241250000 
 C        2.4562190000     0.0806090000     0.1429270000 
 C        2.6960000000    -1.3219450000    -0.4319360000 
 C        2.3193710000    -1.2198150000    -1.8996200000 
 C        3.3596410000    -0.6838040000    -2.8348280000 
 C        2.3251290000     0.2399180000    -2.2697490000 
 C        2.7021630000     1.0303750000    -1.0284190000 
 H        0.8790390000    -0.4133180000     1.1734410000 
 H        3.1149300000     0.2949930000     0.9957180000 
 H        2.0965510000    -2.0681370000     0.0968350000 
 H        3.7449220000    -1.6114270000    -0.3051890000 
 H        1.5655530000    -1.8871420000    -2.2979080000 
 H        3.2854610000    -0.9505080000    -3.8825470000 
 H        4.3776290000    -0.5947810000    -2.4668100000 
 H        1.5738560000     0.6404080000    -2.9385070000 
 H        2.0932170000     1.9270710000    -0.9055130000 
 H        3.7505280000     1.3433400000    -1.0537210000 
*
