! RI PBE def2-SVP def2-SVP/J NBO PAL2
% maxcore 2000
% output
    # printlevel mini
    print[ P_Basis ] 0
    print[ P_SCFInfo ] 1
    print[ P_SCFIterInfo ] 1
    print[ P_OrbEn ] 0
    print[ P_Cartesian ] 0
end
*xyz 0 1
 O        1.5963900000     0.2650900000     1.2506990000 
 C        2.3646410000     0.0479790000     0.3674220000 
 C        2.9677240000    -1.2865940000    -0.0428960000 
 C        3.9464900000    -0.9453240000    -1.1289440000 
 C        5.0535260000     0.0144070000    -0.7759750000 
 C        3.7801790000     0.5246980000    -1.3523330000 
 O        2.8409280000     1.0335600000    -0.4372080000 
 H        2.1595890000    -1.9304530000    -0.3985840000 
 H        3.4011080000    -1.7642080000     0.8380970000 
 H        4.0857150000    -1.6227070000    -1.9604810000 
 H        5.9280180000     0.0178030000    -1.4143680000 
 H        5.2476640000     0.2232010000     0.2704660000 
 H        3.7232280000     0.9998570000    -2.3214940000 
*
