! RI PBE def2-SVP def2-SVP/J NBO PAL2
% maxcore 2000
% output
    # printlevel mini
    print[ P_Basis ] 0
    print[ P_SCFInfo ] 1
    print[ P_SCFIterInfo ] 1
    print[ P_OrbEn ] 0
    print[ P_Cartesian ] 0
end
*xyz 0 1
 O        1.5968090000    -0.0466320000     1.3546150000 
 C        2.4188150000    -0.0459890000     0.4915280000 
 C        3.1740710000     1.0544290000    -0.2409820000 
 C        4.1383570000    -0.0447560000    -0.7780510000 
 C        3.1753070000    -1.1452480000    -0.2414450000 
 C        4.4242070000    -0.0443000000    -2.1939480000 
 C        4.6441500000    -0.0439540000    -3.3746390000 
 H        3.6003370000     1.8499370000     0.3710040000 
 H        2.5636330000     1.4976360000    -1.0316400000 
 H        5.0731700000    -0.0443480000    -0.2125780000 
 H        3.6024640000    -1.9405390000     0.3702000000 
 H        2.5653650000    -1.5887990000    -1.0322930000 
 H        4.8438250000    -0.0434370000    -4.4200800000 
*
