! RI PBE def2-SVP def2-SVP/J NBO PAL2
% maxcore 2000
% output
    # printlevel mini
    print[ P_Basis ] 0
    print[ P_SCFInfo ] 1
    print[ P_SCFIterInfo ] 1
    print[ P_OrbEn ] 0
    print[ P_Cartesian ] 0
end
*xyz 0 1
 O        1.6902140000     1.0728730000    -1.1252420000 
 C        2.5234490000     0.5296640000    -0.4765600000 
 C        3.7158360000     0.9991080000     0.3430320000 
 C        4.2677720000    -0.4415290000     0.2708300000 
 C        2.8918470000    -0.9574920000    -0.2417890000 
 C        2.8258900000    -1.8838530000    -1.3412520000 
 C        2.7847430000    -2.6329870000    -2.2786000000 
 H        3.4067580000     1.2985200000     1.3483570000 
 H        4.3046010000     1.8046370000    -0.0967620000 
 H        5.0368350000    -0.5520850000    -0.4923260000 
 H        4.6159890000    -0.8822560000     1.2028640000 
 H        2.2840880000    -1.3141580000     0.5991780000 
 H        2.7419970000    -3.2977330000    -3.1086400000 
*
