! RI PBE def2-SVP def2-SVP/J NBO PAL2
% maxcore 2000
% output
    # printlevel mini
    print[ P_Basis ] 0
    print[ P_SCFInfo ] 1
    print[ P_SCFIterInfo ] 1
    print[ P_OrbEn ] 0
    print[ P_Cartesian ] 0
end
*xyz 0 1
 O        1.1523680000     0.5126370000     0.0447830000 
 C        2.5160330000     0.2293670000     0.1772830000 
 C        3.3083930000     0.9719850000     1.2894130000 
 C        4.0453430000    -0.3437370000     1.5958180000 
 C        2.9182530000    -1.1016100000     0.8722920000 
 C        3.1694740000     0.3746230000    -1.1563880000 
 C        2.5529450000     0.7160960000    -2.2775730000 
 H        0.7420410000     0.4161360000     0.9073540000 
 H        2.6318490000     1.2464730000     2.1038670000 
 H        3.8871950000     1.8501430000     1.0005020000 
 H        4.2200140000    -0.5873410000     2.6436500000 
 H        4.9953300000    -0.4155260000     1.0640670000 
 H        2.1328920000    -1.4055150000     1.5703070000 
 H        3.1723290000    -1.9501590000     0.2358600000 
 H        4.2385310000     0.1752200000    -1.1648270000 
 H        1.4893590000     0.9191730000    -2.2917760000 
 H        3.0987700000     0.8009440000    -3.2098450000 
*
