! RI PBE def2-SVP def2-SVP/J NBO PAL2
% maxcore 2000
% output
    # printlevel mini
    print[ P_Basis ] 0
    print[ P_SCFInfo ] 1
    print[ P_SCFIterInfo ] 1
    print[ P_OrbEn ] 0
    print[ P_Cartesian ] 0
end
*xyz 0 1
 O        0.8617940000    -0.3221220000     0.3073450000 
 C        2.2383310000    -0.1381670000     0.1063980000 
 C        2.9279570000     1.0903690000     0.7259110000 
 C        4.0899580000     0.1641670000     1.1793270000 
 C        3.1218100000    -1.0332470000     0.9727330000 
 C        5.2605160000     0.1650720000     0.2623550000 
 C        6.5210810000     0.3337670000     0.6389290000 
 H        0.3800640000     0.2351020000    -0.3091050000 
 H        2.4919040000    -0.2395710000    -0.9565360000 
 H        2.3546500000     1.4426560000     1.5858900000 
 H        3.1742070000     1.9349840000     0.0794780000 
 H        4.4299200000     0.3144840000     2.2055520000 
 H        2.5989400000    -1.2745710000     1.9002830000 
 H        3.5218590000    -1.9481460000     0.5337660000 
 H        5.0460120000     0.0138740000    -0.7956290000 
 H        6.7828590000     0.4867620000     1.6816130000 
 H        7.3347270000     0.3246750000    -0.0769110000 
*
