! RI PBE def2-SVP def2-SVP/J NBO PAL2
% maxcore 2000
% output
    # printlevel mini
    print[ P_Basis ] 0
    print[ P_SCFInfo ] 1
    print[ P_SCFIterInfo ] 1
    print[ P_OrbEn ] 0
    print[ P_Cartesian ] 0
end
*xyz 0 1
 O        1.0169620000     0.0097730000     0.1690870000 
 C        2.4149090000     0.0694560000     0.0936140000 
 C        3.1631450000     1.1374490000     0.9124050000 
 C        4.2001060000     0.0451600000     1.2969240000 
 C        3.1331870000    -1.0126750000     0.8970250000 
 C        5.3850990000     0.0363440000     0.4648630000 
 C        6.3643030000     0.0302900000    -0.2317900000 
 H        0.6426360000     0.6369670000    -0.4543260000 
 H        2.7573070000     0.0705520000    -0.9479310000 
 H        2.5702420000     1.4211510000     1.7840370000 
 H        3.5337400000     2.0275960000     0.4042480000 
 H        4.4958100000     0.0332640000     2.3476350000 
 H        2.5303040000    -1.2883710000     1.7642640000 
 H        3.4721840000    -1.9086100000     0.3789800000 
 H        7.2343750000     0.0237640000    -0.8443450000 
*
