! RI PBE def2-SVP def2-SVP/J NBO PAL2
% maxcore 2000
% output
    # printlevel mini
    print[ P_Basis ] 0
    print[ P_SCFInfo ] 1
    print[ P_SCFIterInfo ] 1
    print[ P_OrbEn ] 0
    print[ P_Cartesian ] 0
end
*xyz 0 1
 O        0.9468110000     0.2712050000     0.1804140000 
 C        2.3413000000     0.1864050000     0.1369800000 
 C        3.0859460000     1.2171580000     0.9849060000 
 C        4.1176720000     0.1263300000     1.3403400000 
 C        3.0513190000    -0.9227450000     0.9289300000 
 C        3.4932790000    -2.1571980000     0.2209570000 
 O        3.1608870000    -2.4509860000    -0.8972320000 
 H        0.5854840000    -0.3347590000    -0.4721880000 
 H        2.7098370000     0.1838480000    -0.8958020000 
 H        2.4810530000     1.4820450000     1.8547240000 
 H        3.4379480000     2.1262030000     0.4974170000 
 H        4.4877510000     0.0917460000     2.3638940000 
 H        4.9680260000     0.1272760000     0.6552420000 
 H        2.4572370000    -1.2050550000     1.8061400000 
 H        4.1833320000    -2.8176820000     0.7921980000 
*
