! RI PBE def2-SVP def2-SVP/J NBO PAL2
% maxcore 2000
% output
    # printlevel mini
    print[ P_Basis ] 0
    print[ P_SCFInfo ] 1
    print[ P_SCFIterInfo ] 1
    print[ P_OrbEn ] 0
    print[ P_Cartesian ] 0
end
*xyz 0 1
 O        1.1607880000     0.1878350000     0.1313450000 
 C        2.5365210000    -0.1264820000    -0.0362780000 
 C        2.7780650000    -1.6198430000    -0.2886590000 
 C        2.7031380000    -1.8101610000    -1.8084280000 
 C        3.1748330000    -0.4809130000    -2.3791070000 
 C        2.1602420000     0.6116300000    -2.4737620000 
 C        3.0691870000     0.5532470000    -1.2853260000 
 H        0.8427540000    -0.2852710000     0.9042440000 
 H        3.0957740000     0.2171870000     0.8431230000 
 H        2.0868600000    -2.2559880000     0.2733500000 
 H        3.7904890000    -1.8608870000     0.0510940000 
 H        1.6813500000    -2.0329180000    -2.1283440000 
 H        3.3302710000    -2.6386080000    -2.1438200000 
 H        4.0137210000    -0.4708560000    -3.0646820000 
 H        1.1182670000     0.3599510000    -2.3196590000 
 H        2.3361500000     1.4094950000    -3.1854510000 
 H        3.8153690000     1.3291600000    -1.1689480000 
*
