! RI PBE def2-SVP def2-SVP/J NBO PAL2
% maxcore 2000
% output
    # printlevel mini
    print[ P_Basis ] 0
    print[ P_SCFInfo ] 1
    print[ P_SCFIterInfo ] 1
    print[ P_OrbEn ] 0
    print[ P_Cartesian ] 0
end
*xyz 0 1
 O        1.7927210000     0.2684640000     1.2114670000 
 C        2.5963550000     0.0868420000     0.3346740000 
 C        2.7907330000    -1.2165850000    -0.4334800000 
 C        4.2345330000    -1.1804430000    -0.9387140000 
 C        4.6193510000     0.2889760000    -0.9580600000 
 C        3.6880520000     1.2119430000    -1.6476330000 
 C        3.6082220000     1.0627060000    -0.1422940000 
 H        2.0613750000    -1.2450220000    -1.2492890000 
 H        2.5676560000    -2.0624330000     0.2161120000 
 H        4.3563700000    -1.6489900000    -1.9185620000 
 H        4.8859040000    -1.7125600000    -0.2405480000 
 H        5.6680230000     0.5543590000    -0.9074810000 
 H        2.8848700000     0.8068360000    -2.2528750000 
 H        4.0783930000     2.1586890000    -1.9986150000 
 H        3.8545330000     1.9071990000     0.4865970000 
*
