! RI PBE def2-SVP def2-SVP/J NBO PAL2
% maxcore 2000
% output
    # printlevel mini
    print[ P_Basis ] 0
    print[ P_SCFInfo ] 1
    print[ P_SCFIterInfo ] 1
    print[ P_OrbEn ] 0
    print[ P_Cartesian ] 0
end
*xyz 0 1
 O        0.9842330000     0.2726310000    -0.0244030000 
 C        2.3948450000     0.1319150000     0.0789960000 
 C        3.0915240000     1.3950390000     0.5149510000 
 C        3.6024620000     1.2804560000     1.7398850000 
 C        3.4142760000    -0.0807800000     2.2882420000 
 C        4.1083490000    -1.1668650000     1.5017540000 
 C        2.6845260000    -0.8358920000     1.2057610000 
 H        0.7957020000     0.9997960000    -0.6232300000 
 H        2.7960150000    -0.2372530000    -0.8770750000 
 H        3.1734910000     2.2694660000    -0.1213870000 
 H        4.1373660000     2.0611520000     2.2689600000 
 H        3.2207160000    -0.2340150000     3.3427090000 
 H        4.2992340000    -2.1077890000     2.0048440000 
 H        4.8764520000    -0.8567470000     0.8018330000 
 H        1.9135200000    -1.5571240000     1.4433590000 
*
