! RI PBE def2-SVP def2-SVP/J NBO PAL2
% maxcore 2000
% output
    # printlevel mini
    print[ P_Basis ] 0
    print[ P_SCFInfo ] 1
    print[ P_SCFIterInfo ] 1
    print[ P_OrbEn ] 0
    print[ P_Cartesian ] 0
end
*xyz 0 1
 O        1.5617700000     0.5501170000     0.7884250000 
 C        2.5472710000     0.0007750000    -0.0543300000 
 C        2.3444890000    -1.4787300000    -0.4072430000 
 C        3.0142430000    -1.6617140000    -1.7735450000 
 C        2.8600620000    -0.3070390000    -2.4186950000 
 O        1.5496190000     0.2271800000    -2.2879680000 
 C        2.5549390000     0.6860130000    -1.3943670000 
 H        1.5667370000     0.0687850000     1.6193790000 
 H        3.5480980000     0.1496380000     0.3838810000 
 H        1.2705410000    -1.6528260000    -0.4890550000 
 H        2.7437810000    -2.1504740000     0.3552260000 
 H        2.5644280000    -2.4640490000    -2.3635110000 
 H        4.0811500000    -1.8864120000    -1.6718410000 
 H        3.3774220000    -0.0577470000    -3.3403780000 
 H        2.8156400000     1.7365930000    -1.4748790000 
*
