! RI PBE def2-SVP def2-SVP/J NBO PAL2
% maxcore 2000
% output
    # printlevel mini
    print[ P_Basis ] 0
    print[ P_SCFInfo ] 1
    print[ P_SCFIterInfo ] 1
    print[ P_OrbEn ] 0
    print[ P_Cartesian ] 0
end
*xyz 0 1
 O        0.9623680000    -0.0174200000    -0.1362020000 
 C        2.1461240000     0.1802210000    -0.0784200000 
 C        2.8441210000     1.4900550000     0.0127920000 
 C        4.1635490000     1.3131320000    -0.0775850000 
 C        4.4992960000    -0.1421160000    -0.1597360000 
 O        4.0845410000    -0.8564280000     1.0042550000 
 C        3.2393680000    -0.8728650000    -0.1436930000 
 H        2.3149560000     2.4231610000     0.1514370000 
 H        4.9147380000     2.0924580000    -0.0449140000 
 H        5.3970240000    -0.5044570000    -0.6469070000 
 H        3.0624140000    -1.8335300000    -0.6135370000 
*
