! RI PBE def2-SVP def2-SVP/J NBO PAL2
% maxcore 2000
% output
    # printlevel mini
    print[ P_Basis ] 0
    print[ P_SCFInfo ] 1
    print[ P_SCFIterInfo ] 1
    print[ P_OrbEn ] 0
    print[ P_Cartesian ] 0
end
*xyz 0 1
 O        1.0552640000     0.0313770000    -0.0627020000 
 C        2.4620950000     0.1791990000    -0.0832850000 
 C        2.9538130000     1.4865720000     0.4887290000 
 C        3.6512410000     1.3119650000     1.6090560000 
 C        3.7744190000    -0.1351290000     1.9167550000 
 O        4.4567630000    -0.8705440000     0.8873890000 
 C        3.0455900000    -0.8467800000     0.8676350000 
 H        0.6640900000     0.7173030000    -0.6092300000 
 H        2.8561530000     0.0212170000    -1.0978020000 
 H        2.7822010000     2.4382950000    -0.0024880000 
 H        4.1113210000     2.0944280000     2.1993450000 
 H        3.9130300000    -0.5132040000     2.9232390000 
 H        2.5281210000    -1.7898000000     1.0129610000 
*
