! RI PBE def2-SVP def2-SVP/J NBO PAL2
% maxcore 2000
% output
    # printlevel mini
    print[ P_Basis ] 0
    print[ P_SCFInfo ] 1
    print[ P_SCFIterInfo ] 1
    print[ P_OrbEn ] 0
    print[ P_Cartesian ] 0
end
*xyz 0 1
 O        1.0547420000     0.0237590000    -0.1031620000 
 C        2.4559590000     0.1003290000     0.0022900000 
 C        3.0018810000     1.2167620000     0.8906910000 
 C        4.4232700000     0.7453500000     1.1807450000 
 C        4.2735320000    -0.7692860000     1.3900740000 
 C        3.0282170000    -1.1492100000     0.6239550000 
 C        2.4673320000    -2.3460650000     0.5461840000 
 H        0.7530370000     0.7474440000    -0.6570740000 
 H        2.9010100000     0.2120910000    -1.0016230000 
 H        2.4065770000     1.2452300000     1.8093190000 
 H        2.9543630000     2.2026770000     0.4217530000 
 H        4.8757780000     1.2493790000     2.0360160000 
 H        5.0626530000     0.9449180000     0.3150870000 
 H        4.1314290000    -0.9958640000     2.4514090000 
 H        5.1526980000    -1.3297040000     1.0637400000 
 H        2.9034360000    -3.2108120000     1.0348750000 
 H        1.5407760000    -2.4875980000     0.0025320000 
*
