! RI PBE def2-SVP def2-SVP/J NBO PAL2
% maxcore 2000
% output
    # printlevel mini
    print[ P_Basis ] 0
    print[ P_SCFInfo ] 1
    print[ P_SCFIterInfo ] 1
    print[ P_OrbEn ] 0
    print[ P_Cartesian ] 0
end
*xyz 0 1
 O        1.1713220000     0.1018810000     0.5785510000 
 C        2.3078060000     0.0708500000     0.2138720000 
 C        3.1677610000    -1.1523010000    -0.0389530000 
 C        4.4744980000    -0.5637480000    -0.4704660000 
 C        4.4893150000     0.7745490000    -0.5011360000 
 C        3.1878310000     1.3130140000    -0.0932130000 
 O        2.8276220000     2.4546020000     0.0005260000 
 H        2.7153830000    -1.7929060000    -0.8030290000 
 H        3.2524820000    -1.7605500000     0.8675180000 
 H        5.3224850000    -1.1874730000    -0.7310160000 
 H        5.3264950000     1.3991930000    -0.7823730000 
*
