! RI PBE def2-SVP def2-SVP/J NBO PAL2
% maxcore 2000
% output
    # printlevel mini
    print[ P_Basis ] 0
    print[ P_SCFInfo ] 1
    print[ P_SCFIterInfo ] 1
    print[ P_OrbEn ] 0
    print[ P_Cartesian ] 0
end
*xyz 0 1
 O        1.0634040000    -0.0604370000     0.5315200000 
 C        2.2112120000     0.0014880000     0.2017430000 
 C        3.0924310000     1.2188470000     0.0855840000 
 C        4.2376450000     0.7897960000    -0.8384370000 
 C        4.4477170000    -0.7009720000    -0.5505340000 
 C        3.0777080000    -1.2258780000    -0.2047250000 
 O        2.6830870000    -2.3545050000    -0.2276510000 
 H        3.4706310000     1.4404920000     1.0919120000 
 H        2.5301050000     2.0912260000    -0.2475220000 
 H        5.1423330000     1.3778100000    -0.6855550000 
 H        3.9377490000     0.9236370000    -1.8812870000 
 H        5.0790640000    -0.8377120000     0.3369050000 
 H        4.9027030000    -1.2699910000    -1.3613520000 
*
