! RI PBE def2-SVP def2-SVP/J NBO PAL2
% maxcore 2000
% output
    # printlevel mini
    print[ P_Basis ] 0
    print[ P_SCFInfo ] 1
    print[ P_SCFIterInfo ] 1
    print[ P_OrbEn ] 0
    print[ P_Cartesian ] 0
end
*xyz 0 1
 O        1.3310440000    -0.2945470000     0.6096190000 
 C        2.5742060000    -0.1761380000    -0.0133260000 
 C        2.8993040000    -1.2940730000    -0.9984480000 
 C        3.5566410000    -0.5698860000    -2.1343820000 
 C        3.4457830000     0.7603510000    -2.0533210000 
 C        2.6782670000     1.0962680000    -0.8496430000 
 O        2.1513950000     2.1380830000    -0.5405320000 
 H        1.0185870000     0.6086360000     0.7571760000 
 H        3.3850040000    -0.1169250000     0.7328650000 
 H        1.9710320000    -1.7710050000    -1.3306410000 
 H        3.5333030000    -2.0809780000    -0.5830930000 
 H        4.0500370000    -1.0977720000    -2.9431830000 
 H        3.7925160000     1.4888850000    -2.7736830000 
*
