! RI PBE def2-SVP def2-SVP/J NBO PAL2
% maxcore 2000
% output
    # printlevel mini
    print[ P_Basis ] 0
    print[ P_SCFInfo ] 1
    print[ P_SCFIterInfo ] 1
    print[ P_OrbEn ] 0
    print[ P_Cartesian ] 0
end
*xyz 0 1
 O        1.0035410000    -0.1172640000     0.0498170000 
 C        2.3964560000    -0.0356140000     0.1071970000 
 C        2.9921480000     1.0697330000     0.9721440000 
 C        4.4088130000     0.5661410000     1.2592970000 
 C        4.2263410000    -0.9324320000     1.4952960000 
 C        2.9905470000    -1.3142300000     0.7021530000 
 O        2.5383780000    -2.4152370000     0.5728320000 
 H        0.6744190000     0.5866640000    -0.5133650000 
 H        2.8370510000     0.0327420000    -0.9040010000 
 H        2.4105500000     1.1343620000     1.8978110000 
 H        2.9726690000     2.0502850000     0.4923310000 
 H        4.8735940000     1.0784200000     2.1022390000 
 H        5.0476590000     0.7365490000     0.3873370000 
 H        4.0029080000    -1.1463590000     2.5464160000 
 H        5.0777270000    -1.5568670000     1.2203860000 
*
