! RI PBE def2-SVP def2-SVP/J NBO PAL2
% maxcore 2000
% output
    # printlevel mini
    print[ P_Basis ] 0
    print[ P_SCFInfo ] 1
    print[ P_SCFIterInfo ] 1
    print[ P_OrbEn ] 0
    print[ P_Cartesian ] 0
end
*xyz 0 1
 O        0.9398430000    -0.1198840000     0.1298770000 
 C        2.2889860000    -0.0459300000     0.0097370000 
 C        2.9671410000     1.1661750000    -0.0558140000 
 C        4.3481990000     1.1794590000    -0.1785020000 
 C        5.0616920000    -0.0076690000    -0.2366210000 
 C        4.3763820000    -1.2137380000    -0.1704570000 
 C        2.9977680000    -1.2404440000    -0.0479370000 
 H        0.5752400000     0.7691290000     0.1580690000 
 H        2.4126680000     2.0995550000    -0.0106820000 
 H        4.8676300000     2.1298950000    -0.2288140000 
 H        6.1404930000     0.0060920000    -0.3324700000 
 H        4.9215970000    -2.1499860000    -0.2147440000 
 H        2.4539510000    -2.1760730000     0.0044590000 
*
