! RI PBE def2-SVP def2-SVP/J NBO PAL2
% maxcore 2000
% output
    # printlevel mini
    print[ P_Basis ] 0
    print[ P_SCFInfo ] 1
    print[ P_SCFIterInfo ] 1
    print[ P_OrbEn ] 0
    print[ P_Cartesian ] 0
end
*xyz 0 1
 O        1.1029430000     0.1284520000     0.0623570000 
 C        2.5221130000     0.0509520000     0.0078130000 
 C        2.9931760000    -1.3483120000    -0.3739530000 
 C        2.5882670000    -1.7240690000    -1.7927280000 
 C        3.0809150000    -0.6883690000    -2.7957420000 
 C        2.5833520000     0.7046170000    -2.4310130000 
 C        2.9832310000     1.0808570000    -1.0103500000 
 H        0.7879990000    -0.5495910000     0.6655490000 
 H        2.9380010000     0.3138010000     0.9914810000 
 H        2.6016890000    -2.0764280000     0.3469600000 
 H        4.0854580000    -1.3807500000    -0.2787070000 
 H        1.4965560000    -1.7892130000    -1.8505680000 
 H        2.9775030000    -2.7158470000    -2.0415770000 
 H        2.7581860000    -0.9557970000    -3.8064340000 
 H        4.1790330000    -0.6908050000    -2.8081160000 
 H        1.4923560000     0.7335210000    -2.5143820000 
 H        2.9743630000     1.4461300000    -3.1340610000 
 H        2.5707010000     2.0558750000    -0.7367910000 
 H        4.0742290000     1.1621450000    -0.9415380000 
*
