! RI PBE def2-SVP def2-SVP/J NBO PAL2
% maxcore 2000
% output
    # printlevel mini
    print[ P_Basis ] 0
    print[ P_SCFInfo ] 1
    print[ P_SCFIterInfo ] 1
    print[ P_OrbEn ] 0
    print[ P_Cartesian ] 0
end
*xyz 0 1
 O        1.1383540000     0.0517430000     0.1426100000 
 C        2.3371610000     0.0259420000     0.0087000000 
 C        3.1171570000    -1.2660870000    -0.0555170000 
 C        4.0903370000    -1.2867360000    -1.2356480000 
 C        4.9757400000    -0.0496990000    -1.2507950000 
 C        4.1388180000     1.2202800000    -1.2846420000 
 C        3.1664630000     1.2833650000    -0.1053370000 
 H        2.4109670000    -2.0969960000    -0.0852880000 
 H        3.6881790000    -1.3458990000     0.8791960000 
 H        3.5192750000    -1.3336630000    -2.1701310000 
 H        4.6961140000    -2.1961840000    -1.1965620000 
 H        5.6480350000    -0.0795500000    -2.1129940000 
 H        5.6129410000    -0.0445630000    -0.3574750000 
 H        3.5692890000     1.2527080000    -2.2206740000 
 H        4.7793200000     2.1064690000    -1.2806500000 
 H        2.4928920000     2.1391500000    -0.1680670000 
 H        3.7408520000     1.3774890000     0.8259740000 
*
