! RI PBE def2-SVP def2-SVP/J NBO PAL2
% maxcore 2000
% output
    # printlevel mini
    print[ P_Basis ] 0
    print[ P_SCFInfo ] 1
    print[ P_SCFIterInfo ] 1
    print[ P_OrbEn ] 0
    print[ P_Cartesian ] 0
end
*xyz 0 1
 O        0.8882580000     0.0190500000     0.2164180000 
 C        2.0850650000     0.0545420000     0.0307930000 
 C        2.8059190000     1.3336140000    -0.3303090000 
 C        4.2383950000     1.3532500000     0.1816740000 
 C        5.0079830000     0.1301000000    -0.2933130000 
 C        4.2358930000    -1.1296770000    -0.0831360000 
 C        2.9125430000    -1.1615750000     0.0946760000 
 H        2.2168690000     2.1736110000     0.0411120000 
 H        2.7991020000     1.3982490000    -1.4268440000 
 H        4.2265480000     1.3586530000     1.2769730000 
 H        4.7441120000     2.2696710000    -0.1326890000 
 H        5.9738510000     0.0570180000     0.2159130000 
 H        5.2479880000     0.2190430000    -1.3627960000 
 H        4.7948780000    -2.0623520000    -0.0807170000 
 H        2.3810060000    -2.0915760000     0.2652370000 
*
