! RI PBE def2-SVP def2-SVP/J NBO PAL2
% maxcore 2000
% output
    # printlevel mini
    print[ P_Basis ] 0
    print[ P_SCFInfo ] 1
    print[ P_SCFIterInfo ] 1
    print[ P_OrbEn ] 0
    print[ P_Cartesian ] 0
end
*xyz 0 1
 O        0.9620240000     0.0114580000    -0.5485570000 
 C        2.3340380000     0.0676900000    -0.1561710000 
 C        2.6322920000     1.3017500000     0.6374170000 
 C        3.1689500000     1.2883530000     1.8504140000 
 C        3.5410680000     0.0344050000     2.5642260000 
 C        3.1712660000    -1.1984800000     1.8128540000 
 C        2.6266640000    -1.1831710000     0.6037380000 
 H        0.7947810000     0.7345250000    -1.1590890000 
 H        2.9536760000     0.0722690000    -1.0693320000 
 H        2.3832720000     2.2499070000     0.1662920000 
 H        3.3552320000     2.2257980000     2.3669000000 
 H        3.0654830000     0.0186390000     3.5548230000 
 H        4.6191860000     0.0338530000     2.7800820000 
 H        3.3618080000    -2.1497610000     2.3013520000 
 H        2.3587800000    -2.1093350000     0.1053720000 
*
