! RI PBE def2-SVP def2-SVP/J NBO PAL2
% maxcore 2000
% output
    # printlevel mini
    print[ P_Basis ] 0
    print[ P_SCFInfo ] 1
    print[ P_SCFIterInfo ] 1
    print[ P_OrbEn ] 0
    print[ P_Cartesian ] 0
end
*xyz 0 1
 O        1.0399990000    -0.0970530000     0.5962970000 
 C        2.3238640000    -0.0174490000     0.0065920000 
 C        2.4952500000     1.2335360000    -0.8415620000 
 C        3.7254160000     1.1572480000    -1.6972640000 
 C        4.1590750000    -0.0236780000    -2.1439100000 
 C        3.4436620000    -1.2473190000    -1.7990350000 
 C        2.5432910000    -1.2497290000    -0.8148850000 
 H        0.9327440000     0.6515310000     1.1884200000 
 H        3.0958320000    -0.0120960000     0.7986620000 
 H        2.5181210000     2.1198600000    -0.2004400000 
 H        1.6100910000     1.3337070000    -1.4887130000 
 H        4.2109350000     2.0782640000    -2.0012970000 
 H        5.0185940000    -0.0839520000    -2.8025530000 
 H        3.6558210000    -2.1539280000    -2.3552050000 
 H        1.9964960000    -2.1412330000    -0.5288150000 
*
