! RI PBE def2-SVP def2-SVP/J NBO PAL2
% maxcore 2000
% output
    # printlevel mini
    print[ P_Basis ] 0
    print[ P_SCFInfo ] 1
    print[ P_SCFIterInfo ] 1
    print[ P_OrbEn ] 0
    print[ P_Cartesian ] 0
end
*xyz 0 1
 O        1.0283490000    -0.0947570000    -0.0826560000 
 C        2.4237540000    -0.0516490000     0.1132430000 
 C        2.9189630000     1.0963490000     0.9908110000 
 C        4.3019790000     0.6267110000     1.4352540000 
 C        4.1804200000    -0.8818810000     1.5171960000 
 C        5.0711560000    -1.7000960000     2.0599950000 
 C        2.8799310000    -1.2889690000     0.8729580000 
 H        0.7661100000     0.6778690000    -0.5890300000 
 H        2.9414130000    -0.0106620000    -0.8578030000 
 H        2.2434870000     1.1797300000     1.8484520000 
 H        2.9307690000     2.0598990000     0.4752130000 
 H        4.6310500000     1.0725850000     2.3758630000 
 H        5.0524030000     0.8885760000     0.6806660000 
 H        5.9767190000    -1.3235880000     2.5239000000 
 H        4.9276050000    -2.7751450000     2.0624290000 
 H        2.1252070000    -1.4987190000     1.6407390000 
 H        2.9650050000    -2.1782540000     0.2465790000 
*
