! RI PBE def2-SVP def2-SVP/J NBO PAL2
% maxcore 2000
% output
    # printlevel mini
    print[ P_Basis ] 0
    print[ P_SCFInfo ] 1
    print[ P_SCFIterInfo ] 1
    print[ P_OrbEn ] 0
    print[ P_Cartesian ] 0
end
*xyz 0 1
 O        1.0941710000    -0.2673330000     0.6011730000 
 C        2.4081100000    -0.0482740000     0.1106380000 
 C        2.4914370000     1.1618150000    -0.8062330000 
 C        3.8313700000     1.1933590000    -1.5260530000 
 C        4.0061130000    -0.0383370000    -2.4066570000 
 C        3.5321870000    -1.2871070000    -1.7311580000 
 C        2.8233640000    -1.2929920000    -0.6082040000 
 H        0.8288170000     0.5106400000     1.0986240000 
 H        3.0894560000     0.1042720000     0.9654340000 
 H        2.3381690000     2.0808510000    -0.2299720000 
 H        1.6733460000     1.0896650000    -1.5312260000 
 H        4.6373250000     1.2224770000    -0.7836320000 
 H        3.9254000000     2.1041030000    -2.1232840000 
 H        5.0556410000    -0.1521250000    -2.6988330000 
 H        3.4538470000     0.0870290000    -3.3479410000 
 H        3.7841980000    -2.2328430000    -2.2035420000 
 H        2.5037480000    -2.2274190000    -0.1571440000 
*
