! RI PBE def2-SVP def2-SVP/J NBO PAL2
% maxcore 2000
% output
    # printlevel mini
    print[ P_Basis ] 0
    print[ P_SCFInfo ] 1
    print[ P_SCFIterInfo ] 1
    print[ P_OrbEn ] 0
    print[ P_Cartesian ] 0
end
*xyz 0 1
 O        0.9248400000     0.1724440000    -0.0769460000 
 C        2.1193940000     0.0924370000    -0.0768160000 
 C        2.8245550000    -1.2417570000    -0.0760120000 
 C        4.3106690000    -1.1894440000    -0.0783980000 
 C        4.9593330000    -0.0375120000    -0.0810540000 
 C        4.2651780000     1.2719450000    -0.0820450000 
 O        2.8429940000     1.2232170000    -0.0801230000 
 H        2.4423420000    -1.7927640000    -0.9424180000 
 H        2.4450540000    -1.7900910000     0.7932800000 
 H        4.8523230000    -2.1297670000    -0.0779730000 
 H        6.0437830000     0.0018670000    -0.0828340000 
 H        4.5558180000     1.8567720000    -0.9625770000 
 H        4.5581070000     1.8593630000     0.7960060000 
*
