! RI PBE def2-SVP def2-SVP/J NBO PAL2
% maxcore 2000
% output
    # printlevel mini
    print[ P_Basis ] 0
    print[ P_SCFInfo ] 1
    print[ P_SCFIterInfo ] 1
    print[ P_OrbEn ] 0
    print[ P_Cartesian ] 0
end
*xyz 0 1
 O        0.9560740000    -0.1486830000     0.6725410000 
 C        2.0854990000    -0.0906540000     0.2942830000 
 C        2.7844910000     1.1595930000    -0.1658560000 
 C        4.2479280000     1.2161370000     0.2532260000 
 C        4.8850420000    -0.1005280000    -0.0411030000 
 C        4.1506540000    -1.2018710000    -0.0704670000 
 O        2.8079420000    -1.2455690000     0.2111370000 
 H        2.2027700000     2.0089730000     0.1889650000 
 H        2.7255470000     1.1513410000    -1.2611080000 
 H        4.3344570000     1.4533490000     1.3209890000 
 H        4.7535120000     2.0242170000    -0.2804440000 
 H        5.9475050000    -0.1779840000    -0.2323390000 
 H        4.5315680000    -2.1920400000    -0.2816440000 
*
