! RI PBE def2-SVP def2-SVP/J NBO PAL2
% maxcore 2000
% output
    # printlevel mini
    print[ P_Basis ] 0
    print[ P_SCFInfo ] 1
    print[ P_SCFIterInfo ] 1
    print[ P_OrbEn ] 0
    print[ P_Cartesian ] 0
end
*xyz 0 1
 O        1.0420540000     0.1716530000     0.1609330000 
 C        2.4504190000     0.0742280000     0.0609420000 
 C        2.9043090000    -1.3364090000    -0.2983960000 
 C        2.5211250000    -1.6750560000    -1.7314450000 
 C        3.0279080000    -0.5909330000    -2.6646630000 
 O        2.5266460000     0.6764510000    -2.3073310000 
 C        2.9031330000     1.0532630000    -1.0075800000 
 H        0.7385850000    -0.4812670000     0.7967470000 
 H        2.9181640000     0.3828990000     1.0084240000 
 H        2.4808500000    -2.0578950000     0.4093530000 
 H        3.9934990000    -1.3902950000    -0.1826490000 
 H        1.4332190000    -1.7370030000    -1.8220200000 
 H        2.9349700000    -2.6438330000    -2.0266260000 
 H        2.7070300000    -0.7685860000    -3.6930210000 
 H        4.1316530000    -0.5722000000    -2.6533890000 
 H        2.4533500000     2.0305680000    -0.8236820000 
 H        3.9990860000     1.1544130000    -0.9417170000 
*
