! RI PBE def2-SVP def2-SVP/J NBO PAL2
% maxcore 2000
% output
    # printlevel mini
    print[ P_Basis ] 0
    print[ P_SCFInfo ] 1
    print[ P_SCFIterInfo ] 1
    print[ P_OrbEn ] 0
    print[ P_Cartesian ] 0
end
*xyz 0 1
 O        1.1981420000     0.1117210000     0.6415900000 
 C        2.3289020000     0.0212140000     0.2361330000 
 C        3.0290350000    -1.3023410000     0.0485510000 
 C        4.0518910000    -1.2805420000    -1.0828050000 
 C        4.8732900000    -0.0093570000    -1.0249190000 
 O        4.0445410000     1.1272170000    -1.1248970000 
 C        3.1672950000     1.2576360000    -0.0344350000 
 H        2.2757110000    -2.0833140000    -0.0662130000 
 H        3.5438650000    -1.4945280000     1.0003850000 
 H        3.5417100000    -1.3190430000    -2.0498560000 
 H        4.7051750000    -2.1559750000    -1.0255910000 
 H        5.5719610000     0.0495400000    -1.8612770000 
 H        5.4581330000     0.0311010000    -0.0911450000 
 H        2.5022550000     2.0971520000    -0.2363840000 
 H        3.7263940000     1.4793100000     0.8926730000 
*
