! RI PBE def2-SVP def2-SVP/J NBO PAL2
% maxcore 2000
% output
    # printlevel mini
    print[ P_Basis ] 0
    print[ P_SCFInfo ] 1
    print[ P_SCFIterInfo ] 1
    print[ P_OrbEn ] 0
    print[ P_Cartesian ] 0
end
*xyz 0 1
 O        1.1906450000    -0.0659070000     0.7239560000 
 C        2.2704210000    -0.0343780000     0.2031590000 
 C        3.0316220000     1.2411480000    -0.1364770000 
 C        4.3460650000     0.8208740000    -0.7832890000 
 C        4.3600360000    -0.7022730000    -0.8229670000 
 O        5.2545540000    -1.3645950000    -1.2694030000 
 C        3.0825150000    -1.2399360000    -0.2164820000 
 H        3.1622660000     1.8134000000     0.7851770000 
 H        2.3997990000     1.8502300000    -0.7874430000 
 H        5.2294830000     1.1541090000    -0.2333190000 
 H        4.4661250000     1.1876040000    -1.8055810000 
 H        3.2952100000    -1.8881180000     0.6387740000 
 H        2.5329580000    -1.8534490000    -0.9365040000 
*
