! RI PBE def2-SVP def2-SVP/J NBO PAL2
% maxcore 2000
% output
    # printlevel mini
    print[ P_Basis ] 0
    print[ P_SCFInfo ] 1
    print[ P_SCFIterInfo ] 1
    print[ P_OrbEn ] 0
    print[ P_Cartesian ] 0
end
*xyz 0 1
 O        1.0709890000    -0.0014190000    -0.0096870000 
 C        2.4746130000     0.0395270000     0.0966130000 
 C        3.0116860000     1.1723400000     0.9783570000 
 C        4.4039510000     0.7011940000     1.3775880000 
 C        4.3005790000    -0.8171600000     1.4093340000 
 O        5.1268090000    -1.5647990000     1.8549090000 
 C        2.9811170000    -1.2181080000     0.7789790000 
 H        0.7734700000     0.7893330000    -0.4672830000 
 H        2.9282970000     0.1169220000    -0.9034180000 
 H        2.3645400000     1.2476140000     1.8579140000 
 H        3.0040480000     2.1407680000     0.4730840000 
 H        4.7752540000     1.0877210000     2.3274480000 
 H        5.1521980000     0.9534910000     0.6169790000 
 H        2.2889030000    -1.4796500000     1.5892680000 
 H        3.0845540000    -2.0932960000     0.1380250000 
*
