! RI PBE def2-SVP def2-SVP/J NBO PAL2
% maxcore 2000
% output
    # printlevel mini
    print[ P_Basis ] 0
    print[ P_SCFInfo ] 1
    print[ P_SCFIterInfo ] 1
    print[ P_OrbEn ] 0
    print[ P_Cartesian ] 0
end
*xyz 0 1
 O        1.3632120000    -0.0223300000     0.8505270000 
 C        2.3816800000     0.0791970000     0.2591020000 
 C        3.3755110000     1.1681090000    -0.0888120000 
 C        4.1393390000     0.0203690000    -0.7659670000 
 O        3.0791800000    -0.9093570000    -0.3748710000 
 C        4.3312980000     0.0931930000    -2.1958660000 
 C        4.5059150000     0.1738980000    -3.3795950000 
 H        3.8619170000     1.6303230000     0.7686070000 
 H        2.9835890000     1.9293530000    -0.7609380000 
 H        5.0668010000    -0.2612380000    -0.2631750000 
 H        4.6564580000     0.2373720000    -4.4319010000 
*
