! RI PBE def2-SVP def2-SVP/J NBO PAL2
% maxcore 2000
% output
    # printlevel mini
    print[ P_Basis ] 0
    print[ P_SCFInfo ] 1
    print[ P_SCFIterInfo ] 1
    print[ P_OrbEn ] 0
    print[ P_Cartesian ] 0
end
*xyz 0 1
 O        0.9659200000    -0.1012330000    -0.1385970000 
 C        2.3731520000    -0.0691200000     0.0492040000 
 C        3.1113620000    -1.2719700000    -0.4621290000 
 C        3.9005810000    -0.8783280000    -1.4520830000 
 O        3.8548530000     0.4593850000    -1.7164900000 
 C        2.9622960000     1.0170390000    -0.8263280000 
 C        2.7033050000     2.3126190000    -0.8156580000 
 H        0.6019500000    -0.7602680000     0.4593550000 
 H        2.5939150000     0.1301180000     1.1070190000 
 H        3.0101700000    -2.2792820000    -0.0891450000 
 H        4.5778010000    -1.4356680000    -2.0829690000 
 H        3.1698620000     2.9861010000    -1.5221260000 
 H        1.9927210000     2.7071970000    -0.1033530000 
*
