! RI PBE def2-SVP def2-SVP/J NBO PAL2
% maxcore 2000
% output
    # printlevel mini
    print[ P_Basis ] 0
    print[ P_SCFInfo ] 1
    print[ P_SCFIterInfo ] 1
    print[ P_OrbEn ] 0
    print[ P_Cartesian ] 0
end
*xyz 0 1
 O        0.9203930000     0.0325310000    -0.0451570000 
 C        2.3209520000     0.1146090000    -0.0304540000 
 C        2.9169580000     1.2197620000     0.8382290000 
 C        4.2796340000     0.6376150000     1.1602590000 
 O        4.0816020000    -0.7755280000     1.2271870000 
 C        2.9295030000    -1.1161550000     0.5905430000 
 C        2.4496640000    -2.3502260000     0.5575610000 
 H        0.5832630000     0.6809670000    -0.6673910000 
 H        2.7093720000     0.2081030000    -1.0565470000 
 H        2.3083560000     1.3141230000     1.7411400000 
 H        2.9720910000     2.1895890000     0.3416060000 
 H        4.6873180000     0.9658160000     2.1170610000 
 H        5.0128680000     0.8587150000     0.3753890000 
 H        2.9598220000    -3.1664440000     1.0510290000 
 H        1.5187040000    -2.5368780000     0.0423650000 
*
