! RI PBE def2-SVP def2-SVP/J NBO PAL2
% maxcore 2000
% output
    # printlevel mini
    print[ P_Basis ] 0
    print[ P_SCFInfo ] 1
    print[ P_SCFIterInfo ] 1
    print[ P_OrbEn ] 0
    print[ P_Cartesian ] 0
end
*xyz 0 1
 O        1.1443040000    -0.0050930000     0.2291250000 
 C        2.3393890000    -0.0233620000     0.0712460000 
 C        3.1379930000    -1.2993350000    -0.0262200000 
 C        4.1149130000    -1.2317860000    -1.1993980000 
 O        4.9164740000    -0.0781060000    -1.1415320000 
 C        4.1450420000     1.0932000000    -1.2403180000 
 C        3.1707430000     1.2272710000    -0.0706810000 
 H        2.4575190000    -2.1476520000    -0.1153610000 
 H        3.7133320000    -1.4094400000     0.9002340000 
 H        3.5577170000    -1.2547140000    -2.1485150000 
 H        4.7921110000    -2.0873160000    -1.1878560000 
 H        3.5881880000     1.0971430000    -2.1899040000 
 H        4.8441800000     1.9307770000    -1.2585820000 
 H        2.5124390000     2.0892750000    -0.1899110000 
 H        3.7491750000     1.3549490000     0.8515820000 
*
