! RI PBE def2-SVP def2-SVP/J NBO PAL2
% maxcore 2000
% output
    # printlevel mini
    print[ P_Basis ] 0
    print[ P_SCFInfo ] 1
    print[ P_SCFIterInfo ] 1
    print[ P_OrbEn ] 0
    print[ P_Cartesian ] 0
end
*xyz 0 1
 O        1.1070400000     0.0694120000    -0.5700490000 
 C        2.2642590000     0.0502590000    -0.2438690000 
 C        3.1368350000    -1.1717460000    -0.0453050000 
 C        4.4805310000    -0.6000180000     0.3568400000 
 O        5.4814600000    -1.2140910000     0.6156290000 
 C        4.3440720000     0.8800640000     0.3763130000 
 C        3.1030940000     1.2441810000     0.0399460000 
 H        3.2126370000    -1.7606330000    -0.9624480000 
 H        2.7342230000    -1.8271980000     0.7305590000 
 H        5.1734310000     1.5260700000     0.6359850000 
 H        2.7075080000     2.2495990000    -0.0324020000 
*
