! RI PBE def2-SVP def2-SVP/J NBO PAL2
% maxcore 2000
% output
    # printlevel mini
    print[ P_Basis ] 0
    print[ P_SCFInfo ] 1
    print[ P_SCFIterInfo ] 1
    print[ P_OrbEn ] 0
    print[ P_Cartesian ] 0
end
*xyz 0 1
 O        0.9446920000     0.0705420000     0.4822600000 
 C        2.1178560000     0.0844690000     0.1790900000 
 C        2.8247390000     1.3488820000    -0.2707920000 
 C        4.2910710000     1.2935530000     0.0849360000 
 O        4.9308390000     0.1178040000    -0.4210130000 
 C        4.2515460000    -1.0115740000    -0.2360010000 
 C        2.9597540000    -1.1017520000     0.1272240000 
 H        2.3485030000     2.2160080000     0.1894400000 
 H        2.6930780000     1.4348800000    -1.3556430000 
 H        4.4161310000     1.2840000000     1.1747650000 
 H        4.8516400000     2.1329890000    -0.3249130000 
 H        4.8716410000    -1.8838580000    -0.4177020000 
 H        2.5110290000    -2.0722530000     0.2911400000 
*
