! RI PBE def2-SVP def2-SVP/J NBO PAL2
% maxcore 2000
% output
    # printlevel mini
    print[ P_Basis ] 0
    print[ P_SCFInfo ] 1
    print[ P_SCFIterInfo ] 1
    print[ P_OrbEn ] 0
    print[ P_Cartesian ] 0
end
*xyz 0 1
 O        1.1371150000     0.0545330000    -0.4746780000 
 C        2.4866260000    -0.0558160000    -0.0723450000 
 C        2.8451580000    -1.3423540000     0.6741130000 
 C        3.5842300000    -0.8842610000     1.9244410000 
 O        4.1890980000    -1.5890640000     2.6910420000 
 C        3.4161110000     0.5806200000     2.0064370000 
 C        2.7876020000     1.0281330000     0.9210230000 
 H        0.9894660000    -0.5369930000    -1.2167210000 
 H        3.1460280000     0.0789110000    -0.9433070000 
 H        3.4472990000    -2.0548660000     0.1086620000 
 H        1.9256910000    -1.8447990000     0.9873400000 
 H        3.7739500000     1.1642980000     2.8442320000 
 H        2.5139270000     2.0562470000     0.7142700000 
*
