! RI PBE def2-SVP def2-SVP/J NBO PAL2
% maxcore 2000
% output
    # printlevel mini
    print[ P_Basis ] 0
    print[ P_SCFInfo ] 1
    print[ P_SCFIterInfo ] 1
    print[ P_OrbEn ] 0
    print[ P_Cartesian ] 0
end
*xyz 0 1
 O        1.0382010000     0.0929060000     0.0317490000 
 C        2.4581200000     0.0068410000     0.0539340000 
 C        2.9827940000    -1.2667310000     0.7306580000 
 C        3.3185140000    -0.8799750000     2.1796960000 
 O        4.4765230000    -1.5062900000     2.6953400000 
 C        3.4069530000     0.6187340000     2.1094190000 
 C        2.9630740000     1.0976700000     0.9550030000 
 H        0.7119200000    -0.5169290000    -0.6350670000 
 H        2.8410590000     0.1126050000    -0.9701070000 
 H        3.9083630000    -1.5910260000     0.2451600000 
 H        2.2691940000    -2.0895410000     0.6588360000 
 H        2.5220950000    -1.1768200000     2.8697040000 
 H        5.2287720000    -1.2126670000     2.1723140000 
 H        3.7737250000     1.2068220000     2.9432950000 
 H        2.8879840000     2.1443020000     0.6854570000 
*
