! RI PBE def2-SVP def2-SVP/J NBO PAL2
% maxcore 2000
% output
    # printlevel mini
    print[ P_Basis ] 0
    print[ P_SCFInfo ] 1
    print[ P_SCFIterInfo ] 1
    print[ P_OrbEn ] 0
    print[ P_Cartesian ] 0
end
*xyz 0 1
 O        1.0604300000     0.0717210000     0.2220780000 
 C        2.4170130000     0.0148220000    -0.0605250000 
 C        2.9000070000    -0.4252530000    -1.4233420000 
 O        1.9884710000    -0.7785380000    -2.4091130000 
 C        2.9312920000     1.0182440000    -1.0532940000 
 C        4.1724970000     1.7793290000    -0.8102320000 
 C        5.3968840000     1.4128660000    -1.1650580000 
 H        0.7434610000    -0.8175390000     0.4020780000 
 H        3.0653880000    -0.2149790000     0.7838120000 
 H        3.8459510000    -0.9624420000    -1.4512480000 
 H        1.6731610000    -1.6689900000    -2.2330270000 
 H        2.1115530000     1.5760210000    -1.4994340000 
 H        4.0384790000     2.7202320000    -0.2796910000 
 H        5.5851680000     0.4916290000    -1.7062260000 
 H        6.2565380000     2.0300760000    -0.9329660000 
*
