! RI PBE def2-SVP def2-SVP/J NBO PAL2
% maxcore 2000
% output
    # printlevel mini
    print[ P_Basis ] 0
    print[ P_SCFInfo ] 1
    print[ P_SCFIterInfo ] 1
    print[ P_OrbEn ] 0
    print[ P_Cartesian ] 0
end
*xyz 0 1
 O        0.9565910000     0.0531200000    -0.1167020000 
 C        2.3433580000    -0.0289350000     0.0089780000 
 C        3.0590380000    -0.7682490000    -1.0715860000 
 O        2.3162320000    -1.3954570000    -2.0490970000 
 C        3.1110020000     0.7539830000    -1.0269350000 
 C        4.3119590000     1.4344710000    -0.6657490000 
 C        5.3346480000     1.9825270000    -0.3518090000 
 H        0.5664050000    -0.6585930000     0.4001670000 
 H        2.7313880000    -0.0326020000     1.0230540000 
 H        3.9734750000    -1.2992170000    -0.8370530000 
 H        1.4034840000    -1.0978360000    -1.9435250000 
 H        2.4820500000     1.2380200000    -1.7685490000 
 H        6.2379590000     2.4750680000    -0.0806030000 
*
