! RI PBE def2-SVP def2-SVP/J NBO PAL2
% maxcore 2000
% output
    # printlevel mini
    print[ P_Basis ] 0
    print[ P_SCFInfo ] 1
    print[ P_SCFIterInfo ] 1
    print[ P_OrbEn ] 0
    print[ P_Cartesian ] 0
end
*xyz 0 1
 O        1.0298590000     0.4051720000     0.1189860000 
 C        2.4041200000     0.2026200000     0.0426720000 
 C        3.2321260000     1.0995820000     0.9521910000 
 O        3.9803790000    -0.0260590000     1.4395850000 
 C        3.0304910000    -0.9465170000     0.8734640000 
 C        3.6229030000    -2.0679970000     0.1783390000 
 C        4.0870090000    -2.9955740000    -0.4266050000 
 H        0.5962510000    -0.0943880000    -0.5773200000 
 H        2.7673690000     0.1897520000    -0.9890590000 
 H        2.6236310000     1.5603870000     1.7384620000 
 H        3.8733900000     1.8492060000     0.4843620000 
 H        2.3227510000    -1.2995910000     1.6354400000 
 H        4.5091290000    -3.8187010000    -0.9534270000 
*
