! RI PBE def2-SVP def2-SVP/J NBO PAL2
% maxcore 2000
% output
    # printlevel mini
    print[ P_Basis ] 0
    print[ P_SCFInfo ] 1
    print[ P_SCFIterInfo ] 1
    print[ P_OrbEn ] 0
    print[ P_Cartesian ] 0
end
*xyz 0 1
 O        1.1094140000     0.1155080000     0.1898860000 
 C        2.4918880000    -0.1288850000     0.0095450000 
 C        2.8240470000    -1.5833910000    -0.3425370000 
 O        2.8810200000    -1.6742910000    -1.7552230000 
 C        3.2555470000    -0.4193170000    -2.2512220000 
 C        2.1478110000     0.5543100000    -2.4458250000 
 C        3.0016960000     0.6177650000    -1.2050970000 
 H        0.8113660000    -0.3819100000     0.9555420000 
 H        3.0465830000     0.1844070000     0.9030530000 
 H        2.0682960000    -2.2861630000     0.0184510000 
 H        3.7970470000    -1.8585480000     0.0898760000 
 H        4.1350780000    -0.4232090000    -2.8858000000 
 H        1.1371070000     0.1834740000    -2.3374890000 
 H        2.2829530000     1.3475780000    -3.1713090000 
 H        3.6611370000     1.4631630000    -1.0618610000 
*
