! RI PBE def2-SVP def2-SVP/J NBO PAL2
% maxcore 2000
% output
    # printlevel mini
    print[ P_Basis ] 0
    print[ P_SCFInfo ] 1
    print[ P_SCFIterInfo ] 1
    print[ P_OrbEn ] 0
    print[ P_Cartesian ] 0
end
*xyz 0 1
 O        1.4913860000     0.2317920000     0.9035290000 
 C        2.5257680000     0.0649480000     0.3163020000 
 C        3.0703290000    -1.2833580000    -0.1428540000 
 O        4.4237480000    -1.0958520000    -0.4974870000 
 C        4.7005670000     0.2755340000    -0.5658080000 
 C        3.9200480000     1.0774430000    -1.5301030000 
 C        3.5406490000     1.0784300000    -0.0520490000 
 H        2.4777730000    -1.6559340000    -0.9880830000 
 H        2.9988800000    -2.0110930000     0.6691030000 
 H        5.7307090000     0.5101910000    -0.3324090000 
 H        3.2714160000     0.5640590000    -2.2300540000 
 H        4.3512200000     2.0003770000    -1.8962000000 
 H        3.6153860000     1.9883620000     0.5263120000 
*
