! RI PBE def2-SVP def2-SVP/J NBO PAL2
% maxcore 2000
% output
    # printlevel mini
    print[ P_Basis ] 0
    print[ P_SCFInfo ] 1
    print[ P_SCFIterInfo ] 1
    print[ P_OrbEn ] 0
    print[ P_Cartesian ] 0
end
*xyz 0 1
 O        0.9315390000    -0.0714780000    -0.0571330000 
 C        2.3353170000    -0.0358410000    -0.0308570000 
 C        2.9539940000     1.0372520000     0.8655170000 
 O        4.2496900000     0.5549150000     1.1403550000 
 C        4.1462990000    -0.8488060000     1.3320170000 
 C        2.9140480000    -1.2810230000     0.5845160000 
 C        2.3758900000    -2.4874370000     0.5314290000 
 H        0.6203550000     0.5854810000    -0.6838650000 
 H        2.7409260000     0.0783150000    -1.0473820000 
 H        2.3462340000     1.1334460000     1.7778550000 
 H        3.0501860000     2.0167050000     0.3934300000 
 H        4.0543500000    -1.0845790000     2.4015010000 
 H        5.0642170000    -1.3098870000     0.9586510000 
 H        2.8257320000    -3.3360130000     1.0353550000 
 H        1.4516130000    -2.6547400000    -0.0085890000 
*
