! RI PBE def2-SVP def2-SVP/J NBO PAL2
% maxcore 2000
% output
    # printlevel mini
    print[ P_Basis ] 0
    print[ P_SCFInfo ] 1
    print[ P_SCFIterInfo ] 1
    print[ P_OrbEn ] 0
    print[ P_Cartesian ] 0
end
*xyz 0 1
 O        1.1015280000     0.0691040000     0.7894860000 
 C        2.3604380000     0.0221050000     0.1507830000 
 C        2.5256760000     1.2002840000    -0.7981580000 
 O        3.7865750000     1.1925400000    -1.4454950000 
 C        4.1466560000    -0.0173850000    -1.9363070000 
 C        3.5606980000    -1.1727320000    -1.6358190000 
 C        2.4517390000    -1.2689510000    -0.6347480000 
 H        1.0962770000     0.8006890000     1.4121150000 
 H        3.1751190000     0.0535520000     0.8879660000 
 H        2.4646280000     2.1509600000    -0.2635420000 
 H        1.7256790000     1.1665630000    -1.5488000000 
 H        4.9884700000     0.0645640000    -2.6136940000 
 H        3.9317360000    -2.0718560000    -2.1113690000 
 H        2.6171030000    -2.1079870000     0.0474270000 
 H        1.4848890000    -1.4508400000    -1.1191560000 
*
