! RI PBE def2-SVP def2-SVP/J NBO PAL2
% maxcore 2000
% output
    # printlevel mini
    print[ P_Basis ] 0
    print[ P_SCFInfo ] 1
    print[ P_SCFIterInfo ] 1
    print[ P_OrbEn ] 0
    print[ P_Cartesian ] 0
end
*xyz 0 1
 O        0.9381600000    -0.0278370000     0.5232990000 
 C        2.3106210000     0.0283110000     0.1766440000 
 C        2.6215530000     1.2492590000    -0.6798300000 
 O        3.9271430000     1.1756180000    -1.1972640000 
 C        4.0884090000     0.1140150000    -2.1068630000 
 C        3.4444350000    -1.1555050000    -1.6572630000 
 C        2.6403610000    -1.2023710000    -0.6038140000 
 H        0.7579540000     0.6640140000     1.1648010000 
 H        2.9281590000     0.0590360000     1.0874160000 
 H        2.5692730000     2.1709900000    -0.0943050000 
 H        1.8725560000     1.3050010000    -1.4834600000 
 H        5.1668810000    -0.0267710000    -2.2268450000 
 H        3.6906890000     0.3965430000    -3.0969090000 
 H        3.6558130000    -2.0470860000    -2.2399920000 
 H        2.1764930000    -2.1280960000    -0.2792140000 
*
