! RI PBE def2-SVP def2-SVP/J NBO PAL2
% maxcore 2000
% output
    # printlevel mini
    print[ P_Basis ] 0
    print[ P_SCFInfo ] 1
    print[ P_SCFIterInfo ] 1
    print[ P_OrbEn ] 0
    print[ P_Cartesian ] 0
end
*xyz 0 1
 O        2.1292420000     1.0024220000     0.4857760000 
 C        2.0434460000    -0.1141770000     0.0540290000 
 C        3.1554900000    -1.0757460000    -0.0231380000 
 C        2.8410120000    -2.5354850000     0.1495480000 
 C        3.1539550000    -2.0270170000    -1.2169260000 
 C        4.3988250000    -2.3377610000    -1.8481860000 
 C        5.4430220000    -2.6019400000    -2.3790800000 
 H        1.0720360000    -0.5069520000    -0.3286620000 
 H        4.1172210000    -0.7136700000     0.3163920000 
 H        1.8124270000    -2.8079920000     0.3542220000 
 H        3.5891620000    -3.1374350000     0.6468480000 
 H        2.3103290000    -1.9199840000    -1.8924520000 
 H        6.3680230000    -2.8341630000    -2.8514610000 
*
