! RI PBE def2-SVP def2-SVP/J NBO PAL2
% maxcore 2000
% output
    # printlevel mini
    print[ P_Basis ] 0
    print[ P_SCFInfo ] 1
    print[ P_SCFIterInfo ] 1
    print[ P_OrbEn ] 0
    print[ P_Cartesian ] 0
end
*xyz 0 1
 O        2.6255380000    -0.7988570000     0.9514190000 
 C        1.9328640000    -0.0146660000    -0.0012530000 
 C        2.6227780000    -0.1409290000    -1.3206890000 
 C        2.3311660000    -1.3111380000    -2.2053050000 
 C        1.8369480000     0.0662480000    -2.5760470000 
 C        2.3850840000     0.7654030000    -3.7562190000 
 C        3.4813070000     1.5115390000    -3.7957400000 
 H        2.2297720000    -0.6509260000     1.8132260000 
 H        1.9118540000     1.0407250000     0.3055160000 
 H        0.8903310000    -0.3512170000    -0.1038970000 
 H        3.6482740000     0.2116730000    -1.3204690000 
 H        1.6062010000    -2.0398330000    -1.8621010000 
 H        3.1487730000    -1.7153640000    -2.7887630000 
 H        0.7667920000     0.2047500000    -2.4415300000 
 H        1.8168220000     0.6273850000    -4.6747470000 
 H        4.0829870000     1.6972500000    -2.9125300000 
 H        3.8154300000     1.9666460000    -4.7205810000 
*
