! RI PBE def2-SVP def2-SVP/J NBO PAL2
% maxcore 2000
% output
    # printlevel mini
    print[ P_Basis ] 0
    print[ P_SCFInfo ] 1
    print[ P_SCFIterInfo ] 1
    print[ P_OrbEn ] 0
    print[ P_Cartesian ] 0
end
*xyz 0 1
 O        2.1972720000     1.0745120000    -0.7434460000 
 C        2.5310790000    -0.0834100000    -0.0070840000 
 C        3.0771050000    -1.1114050000    -0.9429820000 
 C        2.9468970000    -2.5566600000    -0.6020650000 
 C        2.1153790000    -1.9762230000    -1.7207480000 
 C        2.4015550000    -2.3284510000    -3.0772320000 
 C        2.6462760000    -2.6287460000    -4.2148580000 
 H        1.9234480000     1.7597960000    -0.1296980000 
 H        1.6493800000    -0.4951360000     0.5071980000 
 H        3.2843990000     0.1432150000     0.7611020000 
 H        3.9712670000    -0.8139430000    -1.4791520000 
 H        2.4249080000    -2.8246060000     0.3090770000 
 H        3.7524970000    -3.2222640000    -0.8814000000 
 H        1.0642950000    -1.8164950000    -1.5023980000 
 H        2.8607210000    -2.8884930000    -5.2240130000 
*
