! RI PBE def2-SVP def2-SVP/J NBO PAL2
% maxcore 2000
% output
    # printlevel mini
    print[ P_Basis ] 0
    print[ P_SCFInfo ] 1
    print[ P_SCFIterInfo ] 1
    print[ P_OrbEn ] 0
    print[ P_Cartesian ] 0
end
*xyz 0 1
 O        1.1982270000    -0.0066320000    -0.2323980000 
 C        2.5189520000     0.3316160000    -0.6097480000 
 C        3.2216740000     0.9078160000     0.5761990000 
 C        4.3480060000     1.8750030000     0.3734320000 
 C        3.0324510000     2.3488160000     0.9257010000 
 C        2.9425280000     2.7684930000     2.3610560000 
 O        3.3547190000     4.1038970000     2.5693390000 
 H        0.7689110000    -0.4377410000    -0.9747820000 
 H        2.5199220000     1.0704770000    -1.4246930000 
 H        3.0610650000    -0.5558680000    -0.9662810000 
 H        3.3209120000     0.2217470000     1.4122460000 
 H        4.6079580000     2.1514090000    -0.6416790000 
 H        5.1935490000     1.8065530000     1.0491710000 
 H        2.4079650000     2.9227440000     0.2474750000 
 H        3.5303970000     2.0737640000     2.9802890000 
 H        1.9076480000     2.7183130000     2.7082720000 
 H        4.2180280000     4.2083110000     2.1595910000 
*
