! RI PBE def2-SVP def2-SVP/J NBO PAL2
% maxcore 2000
% output
    # printlevel mini
    print[ P_Basis ] 0
    print[ P_SCFInfo ] 1
    print[ P_SCFIterInfo ] 1
    print[ P_OrbEn ] 0
    print[ P_Cartesian ] 0
end
*xyz 0 1
 O        3.4293130000     0.0033630000    -0.9197750000 
 C        2.3680150000    -0.0099390000     0.0231810000 
 C        2.7215110000    -1.0251250000     1.0705920000 
 C        1.6669060000    -1.5128580000     2.0827080000 
 C        2.2822870000    -2.9240620000     1.9661620000 
 C        2.8759980000    -2.4899340000     0.6264990000 
 O        4.1493380000    -2.9849770000     0.3306360000 
 H        3.2154440000     0.6226030000    -1.6208580000 
 H        1.4227810000    -0.2961290000    -0.4612890000 
 H        2.2274370000     0.9834240000     0.4718400000 
 H        3.6361650000    -0.7259770000     1.5922730000 
 H        0.6586400000    -1.4752220000     1.6621190000 
 H        1.6526000000    -1.0436600000     3.0662090000 
 H        1.6199900000    -3.7898120000     1.9837980000 
 H        3.0844330000    -3.0656850000     2.6933270000 
 H        2.1687570000    -2.6994070000    -0.1910320000 
 H        4.4860040000    -2.4778030000    -0.4147800000 
*
