! RI PBE def2-SVP def2-SVP/J NBO PAL2
% maxcore 2000
% output
    # printlevel mini
    print[ P_Basis ] 0
    print[ P_SCFInfo ] 1
    print[ P_SCFIterInfo ] 1
    print[ P_OrbEn ] 0
    print[ P_Cartesian ] 0
end
*xyz 0 1
 O        1.0237860000     0.3995010000    -0.4224670000 
 C        1.9289310000     0.1141520000     0.3116710000 
 C        3.0430990000     1.0477150000     0.6860540000 
 C        2.9538680000     2.4859280000     0.1479140000 
 C        2.5970340000     3.0197570000     1.5565320000 
 C        2.8532780000     1.6311060000     2.1111750000 
 O        2.9396850000     1.1583470000     3.1989880000 
 H        1.9815300000    -0.8805570000     0.7982570000 
 H        3.9957150000     0.5178460000     0.5890580000 
 H        2.1784670000     2.6150160000    -0.6050810000 
 H        3.9026350000     2.8606280000    -0.2326570000 
 H        1.5494280000     3.3113850000     1.6714650000 
 H        3.2248430000     3.8037750000     1.9835020000 
*
