! RI PBE def2-SVP def2-SVP/J NBO PAL2
% maxcore 2000
% output
    # printlevel mini
    print[ P_Basis ] 0
    print[ P_SCFInfo ] 1
    print[ P_SCFIterInfo ] 1
    print[ P_OrbEn ] 0
    print[ P_Cartesian ] 0
end
*xyz 0 1
 O        1.5649010000    -0.4787650000    -0.8841620000 
 C        2.0141880000     0.1663130000     0.0182500000 
 C        3.1027190000     1.2075730000    -0.1105180000 
 C        2.7598210000     2.5041890000     0.5659650000 
 C        2.9522230000     3.5042290000    -0.3060830000 
 C        3.4050230000     2.9564710000    -1.5819030000 
 C        3.4845700000     1.6209330000    -1.4913450000 
 H        1.6543090000     0.0197850000     1.0596390000 
 H        3.9746780000     0.7642790000     0.4041840000 
 H        2.4289370000     2.5841800000     1.5922010000 
 H        2.8007620000     4.5570380000    -0.1059210000 
 H        3.6252440000     3.5483880000    -2.4606950000 
 H        3.7571470000     0.9252860000    -2.2711110000 
*
