! RI PBE def2-SVP def2-SVP/J NBO PAL2
% maxcore 2000
% output
    # printlevel mini
    print[ P_Basis ] 0
    print[ P_SCFInfo ] 1
    print[ P_SCFIterInfo ] 1
    print[ P_OrbEn ] 0
    print[ P_Cartesian ] 0
end
*xyz 0 1
 O        1.3024960000    -0.2997320000     0.7100410000 
 C        2.4962800000     0.0350480000     0.0191980000 
 C        2.9339740000     1.3912920000     0.4404590000 
 C        4.1131400000     1.7115910000     0.9666810000 
 C        4.2140230000     3.1709600000     1.2934880000 
 C        2.9952840000     3.7713530000     0.5707720000 
 C        2.0357470000     2.5938240000     0.3382850000 
 H        0.9270460000    -1.0828660000     0.3017410000 
 H        2.3160700000     0.0365080000    -1.0669550000 
 H        3.2917030000    -0.6929820000     0.2254280000 
 H        4.9019590000     0.9986780000     1.1829480000 
 H        5.1574650000     3.6202430000     0.9696850000 
 H        4.1601930000     3.3197090000     2.3799670000 
 H        3.3143230000     4.1720120000    -0.3950020000 
 H        2.5358120000     4.5921050000     1.1241230000 
 H        1.5193830000     2.6525390000    -0.6251990000 
 H        1.2526010000     2.5352180000     1.1025400000 
*
