! RI PBE def2-SVP def2-SVP/J NBO PAL2
% maxcore 2000
% output
    # printlevel mini
    print[ P_Basis ] 0
    print[ P_SCFInfo ] 1
    print[ P_SCFIterInfo ] 1
    print[ P_OrbEn ] 0
    print[ P_Cartesian ] 0
end
*xyz 0 1
 O        1.6254230000    -0.2826170000     1.1837670000 
 C        2.3841930000    -0.0788280000     0.0039300000 
 C        2.8951170000     1.3174840000    -0.0098710000 
 C        4.1655220000     1.7160850000    -0.1902300000 
 C        4.2261700000     3.2065900000    -0.1770730000 
 C        2.8040560000     3.6045360000     0.0451700000 
 C        2.0474230000     2.5020420000     0.1399830000 
 H        1.1623390000    -1.1194550000     1.1037090000 
 H        1.7555220000    -0.2408420000    -0.8846360000 
 H        3.2276030000    -0.7789320000    -0.0542330000 
 H        5.0256030000     1.0728330000    -0.3230560000 
 H        4.6238890000     3.6131330000    -1.1164890000 
 H        4.8868180000     3.5825500000     0.6153180000 
 H        2.4662040000     4.6293790000     0.1176960000 
 H        0.9800280000     2.4648320000     0.3141940000 
*
