! RI PBE def2-SVP def2-SVP/J NBO PAL2
% maxcore 2000
% output
    # printlevel mini
    print[ P_Basis ] 0
    print[ P_SCFInfo ] 1
    print[ P_SCFIterInfo ] 1
    print[ P_OrbEn ] 0
    print[ P_Cartesian ] 0
end
*xyz 0 1
 O        3.2386440000     0.8867830000    -0.9508640000 
 C        2.4834710000     0.0354620000    -0.1128970000 
 C        2.8992940000     0.2825240000     1.3277820000 
 C        2.1045710000    -0.5858170000     2.3259490000 
 C        1.1050220000     0.3561300000     3.0242620000 
 C        1.6179720000     1.7219290000     2.6788230000 
 C        2.5887340000     1.6840580000     1.7741160000 
 H        2.9470370000     0.7653590000    -1.8566970000 
 H        2.6617410000    -1.0202590000    -0.3639800000 
 H        1.4060840000     0.2315750000    -0.2170940000 
 H        3.9742420000     0.0777570000     1.3865740000 
 H        2.7877740000    -1.0113960000     3.0632770000 
 H        1.6090430000    -1.4263740000     1.8332320000 
 H        1.0625690000     0.1852000000     4.1042760000 
 H        0.0801810000     0.2229810000     2.6565460000 
 H        1.2068190000     2.6291280000     3.1078020000 
 H        3.0860910000     2.5472690000     1.3497820000 
*
