! RI PBE def2-SVP def2-SVP/J NBO PAL2
% maxcore 2000
% output
    # printlevel mini
    print[ P_Basis ] 0
    print[ P_SCFInfo ] 1
    print[ P_SCFIterInfo ] 1
    print[ P_OrbEn ] 0
    print[ P_Cartesian ] 0
end
*xyz 0 1
 O        2.7900650000     0.8727620000    -0.9345480000 
 C        2.5492670000    -0.2200180000    -0.0811230000 
 C        2.9288420000     0.1805630000     1.2958910000 
 C        3.4267780000     1.3217300000     1.8252800000 
 C        3.5782140000     1.0723410000     3.2243580000 
 C        3.1608920000    -0.1963690000     3.4286500000 
 O        2.7607960000    -0.7546010000     2.2588920000 
 H        2.5496980000     0.6170280000    -1.8270970000 
 H        3.1369500000    -1.1018980000    -0.3770130000 
 H        1.4899330000    -0.5172060000    -0.0930620000 
 H        3.6542440000     2.2223840000     1.2799090000 
 H        3.9494860000     1.7518770000     3.9748750000 
 H        3.0867250000    -0.8245020000     4.3004890000 
*
