! RI PBE def2-SVP def2-SVP/J NBO PAL2
% maxcore 2000
% output
    # printlevel mini
    print[ P_Basis ] 0
    print[ P_SCFInfo ] 1
    print[ P_SCFIterInfo ] 1
    print[ P_OrbEn ] 0
    print[ P_Cartesian ] 0
end
*xyz 0 1
 O        1.0463320000    -0.0730320000     0.3916670000 
 C        2.2081460000    -0.0772690000     0.0702240000 
 C        3.0226500000    -1.2593790000    -0.1302470000 
 C        4.3353150000    -1.3795110000    -0.4909310000 
 C        4.6114550000    -2.7667560000    -0.5381090000 
 C        3.4455820000    -3.3819180000    -0.2025650000 
 O        2.4797680000    -2.4881790000     0.0458500000 
 H        2.7690170000     0.8643730000    -0.1047420000 
 H        5.0121690000    -0.5643380000    -0.6953870000 
 H        5.5433350000    -3.2486610000    -0.7858020000 
 H        3.1678300000    -4.4191210000    -0.1038660000 
*
