! RI PBE def2-SVP def2-SVP/J NBO PAL2
% maxcore 2000
% output
    # printlevel mini
    print[ P_Basis ] 0
    print[ P_SCFInfo ] 1
    print[ P_SCFIterInfo ] 1
    print[ P_OrbEn ] 0
    print[ P_Cartesian ] 0
end
*xyz 0 1
 O        1.0792440000    -0.3876480000     0.1264350000 
 C        2.4657490000    -0.1627200000     0.0173990000 
 C        2.8861120000    -0.3408800000    -1.4213580000 
 C        4.3223740000     0.1186180000    -1.6749230000 
 C        4.8199240000    -0.8863550000    -2.7047390000 
 C        4.0983410000    -2.1429460000    -2.2532110000 
 O        2.8266440000    -1.7104060000    -1.8094130000 
 H        0.8430990000    -0.4139740000     1.0557020000 
 H        3.0400850000    -0.8664290000     0.6363340000 
 H        2.7258950000     0.8602240000     0.3311780000 
 H        2.1772150000     0.2123430000    -2.0508200000 
 H        4.9112530000     0.0375020000    -0.7544270000 
 H        4.3725860000     1.1545010000    -2.0123700000 
 H        5.9055770000    -0.9955920000    -2.7168820000 
 H        4.4911030000    -0.6029050000    -3.7082620000 
 H        4.6467900000    -2.6312570000    -1.4337750000 
 H        3.9513090000    -2.8779660000    -3.0478870000 
*
