! RI PBE def2-SVP def2-SVP/J NBO PAL2
% maxcore 2000
% output
    # printlevel mini
    print[ P_Basis ] 0
    print[ P_SCFInfo ] 1
    print[ P_SCFIterInfo ] 1
    print[ P_OrbEn ] 0
    print[ P_Cartesian ] 0
end
*xyz 0 1
 O        2.2715060000    -0.4534430000    -0.8361290000 
 C        2.0377970000     0.1095390000     0.1957280000 
 C        2.9334790000     1.1513890000     0.8164040000 
 C        2.4966090000     2.5623660000     0.4094720000 
 C        2.8634020000     3.3654680000     1.6509650000 
 C        2.5346930000     2.3795760000     2.7569750000 
 O        2.8261280000     1.0917890000     2.2258880000 
 H        1.1071800000    -0.0824240000     0.7751470000 
 H        3.9668010000     0.9527070000     0.5083930000 
 H        1.4140110000     2.5936850000     0.2456730000 
 H        2.9864310000     2.8944680000    -0.5050950000 
 H        2.3076420000     4.3001320000     1.7377220000 
 H        3.9314280000     3.5983470000     1.6510610000 
 H        1.4736150000     2.4335730000     3.0327350000 
 H        3.1315690000     2.5211190000     3.6606600000 
*
