! RI PBE def2-SVP def2-SVP/J NBO PAL2
% maxcore 2000
% output
    # printlevel mini
    print[ P_Basis ] 0
    print[ P_SCFInfo ] 1
    print[ P_SCFIterInfo ] 1
    print[ P_OrbEn ] 0
    print[ P_Cartesian ] 0
end
*xyz 0 1
 O        1.2075540000     0.1322360000     0.5566190000 
 C        2.2471400000     0.0972490000    -0.0461430000 
 C        2.9524890000     1.2668920000    -0.5776710000 
 C        4.1075010000     1.2404330000    -1.2486570000 
 C        4.4864440000     2.6405940000    -1.6122450000 
 C        3.3137890000     3.4418140000    -1.0141880000 
 O        2.4236340000     2.4942580000    -0.3948090000 
 H        2.7728640000    -0.8575370000    -0.2554140000 
 H        4.6704900000     0.3499680000    -1.4855520000 
 H        4.5728590000     2.7739200000    -2.6952290000 
 H        5.4507770000     2.9287560000    -1.1818630000 
 H        2.7452770000     3.9848970000    -1.7714640000 
 H        3.6339830000     4.1475400000    -0.2454820000 
*
