! RI PBE def2-SVP def2-SVP/J NBO PAL2
% maxcore 2000
% output
    # printlevel mini
    print[ P_Basis ] 0
    print[ P_SCFInfo ] 1
    print[ P_SCFIterInfo ] 1
    print[ P_OrbEn ] 0
    print[ P_Cartesian ] 0
end
*xyz 0 1
 O        0.9194140000    -0.4364900000     0.2966850000 
 C        2.0455710000    -0.1983940000    -0.0339010000 
 C        3.2054880000    -1.1517050000     0.1899540000 
 C        2.8571330000    -2.6081070000    -0.1447610000 
 C        3.5582420000    -2.7620410000    -1.4648920000 
 C        4.3342900000    -1.7049170000    -1.6584970000 
 O        4.2829310000    -0.7636440000    -0.6724680000 
 H        2.3306000000     0.7599920000    -0.5168600000 
 H        3.5376690000    -1.0133220000     1.2240370000 
 H        1.7727790000    -2.7344840000    -0.1902280000 
 H        3.2391790000    -3.3097820000     0.6036410000 
 H        3.4819350000    -3.6156380000    -2.1201550000 
 H        5.0159780000    -1.4766770000    -2.4656450000 
*
