! RI PBE def2-SVP def2-SVP/J NBO PAL2
% maxcore 2000
% output
    # printlevel mini
    print[ P_Basis ] 0
    print[ P_SCFInfo ] 1
    print[ P_SCFIterInfo ] 1
    print[ P_OrbEn ] 0
    print[ P_Cartesian ] 0
end
*xyz 0 1
 O        3.4921410000     0.2370490000     0.9755290000 
 C        2.6016380000    -0.0413440000    -0.0888240000 
 C        2.8781550000     0.8576080000    -1.2355060000 
 C        3.3084820000     0.5697770000    -2.4611120000 
 C        3.3174730000     1.8301510000    -3.2774610000 
 C        3.1151710000     2.8784590000    -2.1767870000 
 O        2.6080680000     2.1758870000    -1.0316950000 
 H        3.0364810000     0.0795750000     1.8041860000 
 H        1.5598810000     0.1107940000     0.2218360000 
 H        2.7075250000    -1.0784190000    -0.4280420000 
 H        3.5575790000    -0.4170360000    -2.8201550000 
 H        2.5076710000     1.8360510000    -4.0174030000 
 H        4.2513920000     1.9934400000    -3.8203750000 
 H        2.4038680000     3.6640430000    -2.4318890000 
 H        4.0663830000     3.3386640000    -1.8896310000 
*
