! RI PBE def2-SVP def2-SVP/J NBO PAL2
% maxcore 2000
% output
    # printlevel mini
    print[ P_Basis ] 0
    print[ P_SCFInfo ] 1
    print[ P_SCFIterInfo ] 1
    print[ P_OrbEn ] 0
    print[ P_Cartesian ] 0
end
*xyz 0 1
 O        2.9794720000     1.1208910000     0.5401770000 
 C        2.2779240000     0.0049470000     0.0474210000 
 C        3.1975410000    -1.1879590000     0.0167270000 
 C        2.4665600000    -2.4958700000    -0.3482070000 
 C        3.2417390000    -2.9593950000    -1.5467870000 
 C        4.1723410000    -2.0545520000    -1.8201620000 
 O        4.2181820000    -0.9905450000    -0.9861220000 
 H        2.4460310000     1.9065400000     0.4053350000 
 H        1.8989150000     0.1756480000    -0.9698050000 
 H        1.4219960000    -0.2454610000     0.6922980000 
 H        3.7145410000    -1.2599130000     0.9780920000 
 H        1.4109200000    -2.3117640000    -0.5857940000 
 H        2.4839210000    -3.2137960000     0.4763880000 
 H        3.0578290000    -3.8648200000    -2.1037670000 
 H        4.9041700000    -2.0374390000    -2.6166010000 
*
