! RI PBE def2-SVP def2-SVP/J NBO PAL2
% maxcore 2000
% output
    # printlevel mini
    print[ P_Basis ] 0
    print[ P_SCFInfo ] 1
    print[ P_SCFIterInfo ] 1
    print[ P_OrbEn ] 0
    print[ P_Cartesian ] 0
end
*xyz 0 1
 O        2.2111930000    -1.1546720000    -0.3519030000 
 C        2.1491100000     0.0302430000    -0.1361090000 
 C        2.8472600000     0.7069490000     0.9473000000 
 C        2.7962520000     2.0422920000     1.2153780000 
 O        3.5519890000     2.3390550000     2.2788790000 
 C        4.1066200000     1.1728950000     2.7123610000 
 C        3.7129830000     0.1422800000     1.9387570000 
 H        1.5315560000     0.6931320000    -0.7780700000 
 H        2.2798050000     2.8644010000     0.7456040000 
 H        4.7488380000     1.2542580000     3.5732820000 
 H        3.9855840000    -0.8958250000     2.0352310000 
*
