! RI PBE def2-SVP def2-SVP/J NBO PAL2
% maxcore 2000
% output
    # printlevel mini
    print[ P_Basis ] 0
    print[ P_SCFInfo ] 1
    print[ P_SCFIterInfo ] 1
    print[ P_OrbEn ] 0
    print[ P_Cartesian ] 0
end
*xyz 0 1
 O        2.3198540000    -0.8785930000    -0.6883230000 
 C        2.0294420000     0.0423020000     0.0228960000 
 C        3.0029620000     0.9888490000     0.6576450000 
 C        2.7329240000     2.4426690000     0.2276880000 
 C        2.8558260000     3.2077430000     1.5375580000 
 O        2.3267660000     2.3304510000     2.5052900000 
 C        2.8128380000     1.0453970000     2.1934880000 
 H        0.9634910000     0.2583220000     0.2693920000 
 H        4.0114250000     0.6676590000     0.3944320000 
 H        1.7144490000     2.5435280000    -0.1595030000 
 H        3.4236310000     2.7797630000    -0.5453770000 
 H        2.2800690000     4.1335400000     1.5670610000 
 H        3.9088870000     3.4402530000     1.7566990000 
 H        2.0909270000     0.3147970000     2.5687370000 
 H        3.7747900000     0.8605100000     2.6884170000 
*
