! RI PBE def2-SVP def2-SVP/J NBO PAL2
% maxcore 2000
% output
    # printlevel mini
    print[ P_Basis ] 0
    print[ P_SCFInfo ] 1
    print[ P_SCFIterInfo ] 1
    print[ P_OrbEn ] 0
    print[ P_Cartesian ] 0
end
*xyz 0 1
 O        1.6333440000     0.3863880000     0.8763680000 
 C        2.3164800000    -0.0166710000    -0.0328890000 
 C        2.9548830000     0.8509190000    -1.0153730000 
 C        3.7148850000     0.4435030000    -2.0311660000 
 C        4.1824150000     1.6209530000    -2.8084700000 
 O        3.6279220000     2.7457650000    -2.1561790000 
 C        2.8542170000     2.3431350000    -1.0343280000 
 H        2.5011040000    -1.1021290000    -0.1743600000 
 H        3.9658300000    -0.5826230000    -2.2713460000 
 H        3.8455840000     1.5816650000    -3.8548320000 
 H        5.2799610000     1.6916690000    -2.8253380000 
 H        1.8179000000     2.6839040000    -1.1465610000 
 H        3.2528740000     2.7937320000    -0.1174160000 
*
