! RI PBE def2-SVP def2-SVP/J NBO PAL2
% maxcore 2000
% output
    # printlevel mini
    print[ P_Basis ] 0
    print[ P_SCFInfo ] 1
    print[ P_SCFIterInfo ] 1
    print[ P_OrbEn ] 0
    print[ P_Cartesian ] 0
end
*xyz 0 1
 O        2.7367610000     0.5753620000     0.9278850000 
 C        2.1790160000    -0.0697790000     0.0833600000 
 C        2.8233670000    -0.5624480000    -1.1738790000 
 C        4.3012840000    -0.1879600000    -1.3943250000 
 C        4.5958040000    -1.6646410000    -1.5885610000 
 O        5.5248360000    -2.2781650000    -2.0128850000 
 C        3.1954320000    -2.0802830000    -1.1392240000 
 H        1.1173860000    -0.3724430000     0.2142940000 
 H        2.1731340000    -0.3376910000    -2.0229930000 
 H        4.7528020000     0.2067780000    -0.4786440000 
 H        4.5524720000     0.4687330000    -2.2277770000 
 H        3.1991580000    -2.5090250000    -0.1327910000 
 H        2.6607580000    -2.7526380000    -1.8107590000 
*
