! RI PBE def2-SVP def2-SVP/J NBO PAL2
% maxcore 2000
% output
    # printlevel mini
    print[ P_Basis ] 0
    print[ P_SCFInfo ] 1
    print[ P_SCFIterInfo ] 1
    print[ P_OrbEn ] 0
    print[ P_Cartesian ] 0
end
*xyz 0 1
 O        0.9772530000     0.1754600000     0.0255940000 
 C        2.3805440000     0.0353170000     0.0857660000 
 C        2.8159230000    -0.8465420000    -1.0519580000 
 C        4.3062300000    -1.2673280000    -1.0492120000 
 C        3.8418930000    -2.7126420000    -1.1982870000 
 O        4.4038200000    -3.7331770000    -1.4556000000 
 C        2.3845460000    -2.3329060000    -0.9807830000 
 H        0.6877890000     0.7244160000     0.7576350000 
 H        2.6917440000    -0.4232760000     1.0375180000 
 H        2.8811730000     1.0113380000     0.0084850000 
 H        2.5226000000    -0.3894810000    -1.9991500000 
 H        4.8039900000    -1.1049130000    -0.0872050000 
 H        4.9526670000    -0.8903030000    -1.8431790000 
 H        2.0276470000    -2.6291650000     0.0105540000 
 H        1.6782700000    -2.7024870000    -1.7252780000 
*
