! RI PBE def2-SVP def2-SVP/J NBO PAL2
% maxcore 2000
% output
    # printlevel mini
    print[ P_Basis ] 0
    print[ P_SCFInfo ] 1
    print[ P_SCFIterInfo ] 1
    print[ P_OrbEn ] 0
    print[ P_Cartesian ] 0
end
*xyz 0 1
 O        3.1599870000     0.3478560000    -1.1372530000 
 C        2.2155100000     0.1060890000    -0.1129340000 
 C        2.7994220000    -0.8848960000     0.8528770000 
 C        1.8828760000    -1.4040650000     1.9799050000 
 C        2.4467690000    -2.8131400000     1.7564860000 
 O        3.4619250000    -3.0534220000     2.7072370000 
 C        2.9796190000    -2.3445170000     0.3878560000 
 H        2.7845210000     0.9726560000    -1.7611800000 
 H        1.2804040000    -0.2999850000    -0.5294120000 
 H        1.9647860000     1.0352920000     0.4204900000 
 H        3.7328770000    -0.4889860000     1.2584150000 
 H        0.8259720000    -1.3464080000     1.7058340000 
 H        2.0186070000    -0.9983200000     2.9826930000 
 H        1.7239450000    -3.6377430000     1.7479530000 
 H        3.9642400000    -3.8214730000     2.4225010000 
 H        2.2908360000    -2.5943900000    -0.4240170000 
 H        3.9837150000    -2.6724480000     0.1133600000 
*
