! RI PBE def2-SVP def2-SVP/J NBO PAL2
% maxcore 2000
% output
    # printlevel mini
    print[ P_Basis ] 0
    print[ P_SCFInfo ] 1
    print[ P_SCFIterInfo ] 1
    print[ P_OrbEn ] 0
    print[ P_Cartesian ] 0
end
*xyz 0 1
 O        2.2099700000     1.3166870000    -0.1293870000 
 C        2.1465010000     0.1334890000     0.1255040000 
 C        2.9622700000    -0.5334800000     1.1058480000 
 C        2.9030400000    -1.8415840000     1.3987000000 
 O        3.7460380000    -2.2603540000     2.3393200000 
 C        4.5133720000    -1.1093050000     2.7832320000 
 C        4.0163370000     0.0968740000     1.9726840000 
 H        1.4253640000    -0.5233830000    -0.4068980000 
 H        2.2630660000    -2.6057450000     0.9750950000 
 H        5.5647180000    -1.3428730000     2.6114930000 
 H        4.3447160000    -1.0094880000     3.8560460000 
 H        4.8075440000     0.5542830000     1.3742870000 
 H        3.5982850000     0.8832590000     2.6052740000 
*
