! RI PBE def2-SVP def2-SVP/J NBO PAL2
% maxcore 2000
% output
    # printlevel mini
    print[ P_Basis ] 0
    print[ P_SCFInfo ] 1
    print[ P_SCFIterInfo ] 1
    print[ P_OrbEn ] 0
    print[ P_Cartesian ] 0
end
*xyz 0 1
 O        3.1412720000    -1.1495160000    -0.3830620000 
 C        2.3317050000     0.0217260000    -0.4162690000 
 C        2.7813860000     0.9560790000     0.6664800000 
 C        2.6937790000     0.4044060000     2.0678300000 
 O        3.6638740000    -0.5772590000     2.3471900000 
 C        3.8962180000     1.9082580000     0.3595480000 
 C        2.4906040000     2.4133860000     0.4608150000 
 H        2.7433530000    -1.8202300000    -0.9424200000 
 H        1.2777100000    -0.2448670000    -0.2554690000 
 H        2.4123320000     0.5158160000    -1.3934930000 
 H        1.6778760000     0.0101080000     2.2344630000 
 H        2.8478710000     1.2115760000     2.7897530000 
 H        3.6994930000    -1.1555380000     1.5755390000 
 H        4.3505260000     1.8577020000    -0.6227330000 
 H        4.5857010000     2.1386740000     1.1621690000 
 H        1.9857020000     2.7101720000    -0.4514270000 
 H        2.2147090000     2.9962060000     1.3313970000 
*
