! RI PBE def2-SVP def2-SVP/J NBO PAL2
% maxcore 2000
% output
    # printlevel mini
    print[ P_Basis ] 0
    print[ P_SCFInfo ] 1
    print[ P_SCFIterInfo ] 1
    print[ P_OrbEn ] 0
    print[ P_Cartesian ] 0
end
*xyz 0 1
 O        3.4123180000     0.3078880000    -0.9346340000 
 C        2.4817870000    -0.0636180000     0.0589960000 
 C        2.9801930000     0.4617190000     1.3949160000 
 C        2.0365440000     0.1087370000     2.5583010000 
 O        1.4345410000     1.3334680000     3.0099360000 
 C        2.0807250000     2.3410450000     2.3712150000 
 C        2.9816370000     1.9642420000     1.4738910000 
 H        3.0742240000     0.0386770000    -1.7911360000 
 H        2.3814250000    -1.1582630000     0.1137860000 
 H        1.4878690000     0.3597360000    -0.1446650000 
 H        3.9788490000     0.0436290000     1.5587510000 
 H        2.5739150000    -0.3302920000     3.4026950000 
 H        1.2328820000    -0.5716900000     2.2644890000 
 H        1.7724980000     3.3339750000     2.6694420000 
 H        3.5792830000     2.6140270000     0.8552160000 
*
