! RI PBE def2-SVP def2-SVP/J NBO PAL2
% maxcore 2000
% output
    # printlevel mini
    print[ P_Basis ] 0
    print[ P_SCFInfo ] 1
    print[ P_SCFIterInfo ] 1
    print[ P_OrbEn ] 0
    print[ P_Cartesian ] 0
end
*xyz 0 1
 O        2.5432480000     0.8507240000     0.5593900000 
 C        2.1113870000    -0.0746250000    -0.0673710000 
 C        2.9000530000    -0.8142720000    -1.0885440000 
 O        2.4751110000    -2.1392510000    -1.3473850000 
 C        2.2246280000    -1.1792820000    -2.3539190000 
 C        2.9701880000    -1.2660100000    -3.5765570000 
 C        3.5662360000    -1.3266270000    -4.6156890000 
 H        1.0741940000    -0.4519450000     0.0645180000 
 H        3.9718090000    -0.6367200000    -1.1024940000 
 H        1.1750690000    -0.9120210000    -2.4658090000 
 H        4.1018580000    -1.3853800000    -5.5341390000 
*
