! RI PBE def2-SVP def2-SVP/J NBO PAL2
% maxcore 2000
% output
    # printlevel mini
    print[ P_Basis ] 0
    print[ P_SCFInfo ] 1
    print[ P_SCFIterInfo ] 1
    print[ P_OrbEn ] 0
    print[ P_Cartesian ] 0
end
*xyz 0 1
 O        1.6674860000     0.9194690000    -0.0338760000 
 C        2.2904160000    -0.3022000000    -0.3655170000 
 C        2.8201900000    -0.9044370000     0.9004350000 
 O        3.7456110000    -1.9582780000     0.7356920000 
 C        4.2180120000    -0.7318140000     1.3034340000 
 C        4.6287350000    -0.7789360000     2.7122240000 
 C        5.6621940000    -0.1043610000     3.1975730000 
 H        1.2044180000     1.2480920000    -0.8070910000 
 H        3.1218940000    -0.1648240000    -1.0696190000 
 H        1.5779860000    -1.0053720000    -0.8192750000 
 H        2.0776900000    -1.0600770000     1.6828160000 
 H        4.8595780000    -0.1538440000     0.6393590000 
 H        4.0259950000    -1.4107650000     3.3598180000 
 H        6.2783570000     0.5215110000     2.5597290000 
 H        5.9261370000    -0.1483640000     4.2470980000 
*
