! RI PBE def2-SVP def2-SVP/J NBO PAL2
% maxcore 2000
% output
    # printlevel mini
    print[ P_Basis ] 0
    print[ P_SCFInfo ] 1
    print[ P_SCFIterInfo ] 1
    print[ P_OrbEn ] 0
    print[ P_Cartesian ] 0
end
*xyz 0 1
 O        2.8383100000    -0.4313220000     1.3335910000 
 C        2.4207800000     0.0592160000     0.0776470000 
 C        2.9050910000    -0.8669950000    -1.0167910000 
 O        2.4728220000    -0.3619540000    -2.2663840000 
 C        4.3902600000    -1.2857460000    -1.0256680000 
 C        3.9483820000    -2.7112180000    -1.4113870000 
 C        2.5253840000    -2.3534820000    -0.9396520000 
 H        2.4401500000     0.1054660000     2.0212670000 
 H        2.8279050000     1.0667500000    -0.1068290000 
 H        1.3264830000     0.1221200000     0.0097150000 
 H        2.9779800000     0.4334390000    -2.4600330000 
 H        4.8123340000    -1.2447880000    -0.0205240000 
 H        5.0402020000    -0.7430290000    -1.7166520000 
 H        4.4480120000    -3.5384210000    -0.9066220000 
 H        3.9896070000    -2.8753740000    -2.4883490000 
 H        2.3480480000    -2.6535730000     0.0938410000 
 H        1.6830500000    -2.6501900000    -1.5653680000 
*
