! RI PBE def2-SVP def2-SVP/J NBO PAL2
% maxcore 2000
% output
    # printlevel mini
    print[ P_Basis ] 0
    print[ P_SCFInfo ] 1
    print[ P_SCFIterInfo ] 1
    print[ P_OrbEn ] 0
    print[ P_Cartesian ] 0
end
*xyz 0 1
 O        2.8842870000    -2.3954680000    -0.7399340000 
 C        2.3565710000    -1.9526850000     0.2435460000 
 C        3.0025930000    -1.0121250000     1.2163370000 
 C        4.4471300000    -0.6916890000     0.9279470000 
 C        5.2144220000     0.2308270000     1.8962480000 
 C        6.4606130000    -0.6471650000     1.6742330000 
 C        5.5271850000    -1.7653770000     1.1738340000 
 H        1.3065050000    -2.2286650000     0.4886860000 
 H        2.8809010000    -1.4451060000     2.2194770000 
 H        2.3837020000    -0.1025200000     1.2293000000 
 H        4.5392830000    -0.3191890000    -0.0962080000 
 H        4.8365150000     0.1289340000     2.9179150000 
 H        5.2766530000     1.2930890000     1.6525900000 
 H        7.0962170000    -0.8570780000     2.5354660000 
 H        7.0852210000    -0.2576510000     0.8675670000 
 H        5.2362290000    -2.4334230000     1.9903220000 
 H        5.8423760000    -2.3698190000     0.3236530000 
*
