! RI PBE def2-SVP def2-SVP/J NBO PAL2
% maxcore 2000
% output
    # printlevel mini
    print[ P_Basis ] 0
    print[ P_SCFInfo ] 1
    print[ P_SCFIterInfo ] 1
    print[ P_OrbEn ] 0
    print[ P_Cartesian ] 0
end
*xyz 0 1
 O        2.6456490000     2.3351050000     1.1060710000 
 C        2.2950410000     1.2139640000     1.3583460000 
 C        3.2039950000     0.0249560000     1.3897850000 
 C        4.6397620000     0.3406520000     1.0623280000 
 C        5.5043240000     1.0482990000     2.1101910000 
 C        6.4441930000    -0.1426760000     1.9190710000 
 O        5.4724850000    -0.8311430000     1.1147970000 
 H        1.2301390000     0.9969430000     1.5937330000 
 H        2.8077240000    -0.7214810000     0.6882160000 
 H        3.1225310000    -0.4419410000     2.3803480000 
 H        4.6991540000     0.8154430000     0.0757300000 
 H        5.0414110000     1.0928890000     3.0967990000 
 H        5.8808030000     2.0332710000     1.8430500000 
 H        6.7152360000    -0.7155310000     2.8098520000 
 H        7.3513430000     0.0807400000     1.3465930000 
*
