! RI PBE def2-SVP def2-SVP/J NBO PAL2
% maxcore 2000
% output
    # printlevel mini
    print[ P_Basis ] 0
    print[ P_SCFInfo ] 1
    print[ P_SCFIterInfo ] 1
    print[ P_OrbEn ] 0
    print[ P_Cartesian ] 0
end
*xyz 0 1
 O        2.8011160000     0.0909500000    -3.3616020000 
 C        2.2746350000     0.0680170000    -2.0481720000 
 C        2.9114030000    -1.0774530000    -1.2945000000 
 C        4.4127920000    -0.9555920000    -1.1620090000 
 C        5.1738230000    -2.0878770000    -0.4627520000 
 O        6.0998470000    -2.2014600000    -1.5483650000 
 C        5.3061830000    -1.3155020000    -2.3556970000 
 H        2.4224400000     0.8355800000    -3.8334020000 
 H        1.1841010000    -0.0626220000    -2.0665530000 
 H        2.4886060000     1.0131400000    -1.5276260000 
 H        2.6600380000    -2.0197370000    -1.7943250000 
 H        2.4584440000    -1.1173020000    -0.2968820000 
 H        4.6748170000     0.0208680000    -0.7449300000 
 H        4.5843760000    -3.0060440000    -0.3347930000 
 H        5.6715520000    -1.8488980000     0.4820810000 
 H        4.7849750000    -1.8515150000    -3.1557030000 
 H        5.9026510000    -0.5107450000    -2.7923710000 
*
