! RI PBE def2-SVP def2-SVP/J NBO PAL2
% maxcore 2000
% output
    # printlevel mini
    print[ P_Basis ] 0
    print[ P_SCFInfo ] 1
    print[ P_SCFIterInfo ] 1
    print[ P_OrbEn ] 0
    print[ P_Cartesian ] 0
end
*xyz 0 1
 O        3.0005090000     3.4758440000    -0.3267510000 
 C        2.3707490000     2.4568470000    -0.2444770000 
 C        2.9734220000     1.0835990000    -0.2500720000 
 C        4.4746800000     1.0742530000    -0.3878800000 
 C        5.2975670000     1.5359860000     0.8207610000 
 O        5.9732170000     0.2722810000     0.9037320000 
 C        5.1943690000    -0.2631410000    -0.1712160000 
 H        1.2628170000     2.4844210000    -0.1540330000 
 H        2.4874380000     0.5184080000    -1.0576200000 
 H        2.6528170000     0.5845330000     0.6755510000 
 H        4.7677100000     1.5790300000    -1.3088810000 
 H        4.7140690000     1.7457970000     1.7249910000 
 H        5.9894430000     2.3629990000     0.6436350000 
 H        4.5506840000    -1.0867580000     0.1626950000 
 H        5.8213090000    -0.6145990000    -0.9966450000 
*
