! RI PBE def2-SVP def2-SVP/J NBO PAL2
% maxcore 2000
% output
    # printlevel mini
    print[ P_Basis ] 0
    print[ P_SCFInfo ] 1
    print[ P_SCFIterInfo ] 1
    print[ P_OrbEn ] 0
    print[ P_Cartesian ] 0
end
*xyz 0 1
 O        3.2698200000    -0.3083990000     1.1681940000 
 C        2.7030730000    -0.3998420000    -0.1342410000 
 C        3.1559210000     0.7942670000    -0.9471150000 
 C        4.6540800000     0.8765780000    -1.0996500000 
 O        5.3355840000     1.2190180000     0.0681730000 
 C        5.3444340000    -0.0506210000    -2.0599100000 
 C        5.2531590000     1.4299380000    -2.3407020000 
 H        3.0807490000    -1.1164600000     1.6496450000 
 H        1.6075520000    -0.4167770000    -0.0709570000 
 H        3.0321310000    -1.3241070000    -0.6268580000 
 H        2.7964620000     1.7156240000    -0.4765940000 
 H        2.6878750000     0.7267840000    -1.9336760000 
 H        4.9700160000     0.6631690000     0.7691500000 
 H        4.7490670000    -0.7259230000    -2.6644510000 
 H        6.3085280000    -0.4355420000    -1.7531870000 
 H        4.5947030000     1.7673710000    -3.1321470000 
 H        6.1563350000     2.0133120000    -2.2140830000 
*
