! RI PBE def2-SVP def2-SVP/J NBO PAL2
% maxcore 2000
% output
    # printlevel mini
    print[ P_Basis ] 0
    print[ P_SCFInfo ] 1
    print[ P_SCFIterInfo ] 1
    print[ P_OrbEn ] 0
    print[ P_Cartesian ] 0
end
*xyz 0 1
 O        2.4550000000    -1.2984930000     3.3127160000 
 C        3.4906200000    -1.6855100000     2.4284740000 
 C        2.8904550000    -1.8494290000     1.0508640000 
 C        3.9062800000    -2.1860930000    -0.0343990000 
 C        4.5864430000    -3.5189140000     0.1385040000 
 C        5.8468260000    -3.8197540000    -0.6106700000 
 C        5.8872880000    -3.6300230000     0.8759770000 
 H        2.8152830000    -1.2454600000     4.2003340000 
 H        3.9525560000    -2.6256620000     2.7551970000 
 H        4.2822200000    -0.9212960000     2.3965920000 
 H        2.3740460000    -0.9191120000     0.7940710000 
 H        2.1215310000    -2.6283040000     1.0967360000 
 H        4.6711240000    -1.4006550000    -0.0828650000 
 H        3.3956820000    -2.1699740000    -1.0036580000 
 H        3.9048160000    -4.3565440000     0.2624130000 
 H        6.2600520000    -3.0320160000    -1.2303340000 
 H        5.9901950000    -4.8184250000    -1.0039470000 
 H        6.3277550000    -2.7137970000     1.2520480000 
 H        6.0599390000    -4.4984390000     1.4999470000 
*
