! RI PBE def2-SVP def2-SVP/J NBO PAL2
% maxcore 2000
% output
    # printlevel mini
    print[ P_Basis ] 0
    print[ P_SCFInfo ] 1
    print[ P_SCFIterInfo ] 1
    print[ P_OrbEn ] 0
    print[ P_Cartesian ] 0
end
*xyz 0 1
 O        1.2398100000     0.4627410000     1.3788590000 
 C        2.3480390000     0.4092620000     0.9035990000 
 C        3.1371330000     1.5628230000     0.4935440000 
 C        4.3598590000     1.3922310000    -0.0238890000 
 C        5.2832140000     2.4310350000    -0.4849650000 
 C        4.7533630000     3.6883550000    -1.1406580000 
 C        5.3388410000     3.7708230000     0.2173170000 
 H        2.8523330000    -0.5705270000     0.7448040000 
 H        2.6821290000     2.5396090000     0.6311220000 
 H        4.7168230000     0.3671010000    -0.1162890000 
 H        6.2265700000     2.0639310000    -0.8694880000 
 H        3.6775270000     3.7581210000    -1.2432920000 
 H        5.3183680000     4.0831590000    -1.9755480000 
 H        4.6704800000     3.8980270000     1.0599010000 
 H        6.3150340000     4.2236180000     0.3363030000 
*
