! RI PBE def2-SVP def2-SVP/J NBO PAL2
% maxcore 2000
% output
    # printlevel mini
    print[ P_Basis ] 0
    print[ P_SCFInfo ] 1
    print[ P_SCFIterInfo ] 1
    print[ P_OrbEn ] 0
    print[ P_Cartesian ] 0
end
*xyz 0 1
 O        0.9437660000     0.0895100000    -0.4736970000 
 C        2.3518040000     0.0938460000    -0.2754120000 
 C        2.9691020000    -1.1155990000    -0.9060420000 
 C        3.6248700000    -2.0543690000    -0.2382800000 
 C        2.8812540000     1.3685730000    -0.8641200000 
 C        2.8198240000     2.6297510000    -0.0622010000 
 C        4.1383360000     1.9655850000    -0.3151350000 
 H        0.6149700000    -0.7756850000    -0.2134550000 
 H        2.5839950000     0.0869480000     0.8015070000 
 H        2.8319630000    -1.2012600000    -1.9825890000 
 H        3.7656170000    -1.9866620000     0.8366270000 
 H        4.0508480000    -2.9183670000    -0.7352780000 
 H        2.7164210000     1.4603840000    -1.9331290000 
 H        2.4007730000     2.5649850000     0.9348710000 
 H        2.5993100000     3.5538230000    -0.5813430000 
 H        4.6168810000     1.4554470000     0.5129020000 
 H        4.8269660000     2.4304800000    -1.0090250000 
*
