! RI PBE def2-SVP def2-SVP/J NBO PAL2
% maxcore 2000
% output
    # printlevel mini
    print[ P_Basis ] 0
    print[ P_SCFInfo ] 1
    print[ P_SCFIterInfo ] 1
    print[ P_OrbEn ] 0
    print[ P_Cartesian ] 0
end
*xyz 0 1
 O        3.8677370000     0.3475750000    -0.9697710000 
 C        2.8058930000    -0.1904520000    -0.2168490000 
 C        3.1561470000    -0.2429310000     1.2294040000 
 C        4.3106120000     0.1540000000     1.7484820000 
 C        4.6829090000     0.0885050000     3.1770180000 
 C        3.9977460000    -0.8193220000     4.1471370000 
 C        5.4017950000    -1.1198480000     3.7176420000 
 H        3.6042500000     0.3687860000    -1.8915760000 
 H        2.5558120000    -1.2074710000    -0.5595920000 
 H        1.8919360000     0.4130060000    -0.3371890000 
 H        2.3736050000    -0.6400930000     1.8719440000 
 H        5.0610830000     0.5620670000     1.0762170000 
 H        5.0317660000     1.0333480000     3.5854760000 
 H        3.2142180000    -1.4672830000     3.7752070000 
 H        3.8352130000    -0.4577030000     5.1547950000 
 H        5.5473130000    -1.9494020000     3.0366190000 
 H        6.2058460000    -0.9650830000     4.4266150000 
*
