! RI PBE def2-SVP def2-SVP/J NBO PAL2
% maxcore 2000
% output
    # printlevel mini
    print[ P_Basis ] 0
    print[ P_SCFInfo ] 1
    print[ P_SCFIterInfo ] 1
    print[ P_OrbEn ] 0
    print[ P_Cartesian ] 0
end
*xyz 0 1
 O        0.7027010000    -0.1824230000    -0.2657430000 
 C        2.1031450000    -0.3184460000    -0.2640030000 
 C        2.7719830000     0.9193680000    -0.7781290000 
 C        2.0850940000     1.9926310000    -1.1490020000 
 C        4.2522290000     0.8161850000    -0.8206230000 
 C        5.1408470000     2.0164140000    -0.8284890000 
 C        5.0693230000     1.1614070000     0.3984090000 
 H        0.3213150000    -0.9844920000     0.0960020000 
 H        2.4191330000    -1.1676160000    -0.8913260000 
 H        2.4828850000    -0.5193260000     0.7497390000 
 H        1.0054110000     2.0104800000    -1.0781820000 
 H        2.5854720000     2.8716470000    -1.5369080000 
 H        4.6197410000    -0.0416250000    -1.3792180000 
 H        4.6760770000     2.9926690000    -0.7821530000 
 H        6.0389880000     1.9758210000    -1.4317480000 
 H        4.5339020000     1.5622520000     1.2507720000 
 H        5.9161520000     0.5333640000     0.6465020000 
*
