! RI PBE def2-SVP def2-SVP/J NBO PAL2
% maxcore 2000
% output
    # printlevel mini
    print[ P_Basis ] 0
    print[ P_SCFInfo ] 1
    print[ P_SCFIterInfo ] 1
    print[ P_OrbEn ] 0
    print[ P_Cartesian ] 0
end
*xyz 0 1
 O        0.9883290000    -0.4955810000    -0.1814230000 
 C        2.2557390000     0.0719470000     0.0972920000 
 C        2.7159210000     0.8525030000    -1.0357630000 
 C        3.1175910000     1.5030090000    -1.9654200000 
 C        3.5851330000     2.2764750000    -3.0739620000 
 C        2.6516540000     3.2526810000    -3.7487900000 
 C        3.7791700000     3.7664420000    -2.9230950000 
 H        0.7213800000    -1.0045080000     0.5885120000 
 H        2.9989230000    -0.7099450000     0.3098260000 
 H        2.2079820000     0.7239440000     0.9813430000 
 H        4.2902200000     1.7688850000    -3.7237070000 
 H        1.6501480000     3.3245710000    -3.3461030000 
 H        2.7203070000     3.3327890000    -4.8262080000 
 H        3.5486620000     4.1919770000    -1.9554710000 
 H        4.6316400000     4.2048120000    -3.4263290000 
*
