! RI PBE def2-SVP def2-SVP/J NBO PAL2
% maxcore 2000
% output
    # printlevel mini
    print[ P_Basis ] 0
    print[ P_SCFInfo ] 1
    print[ P_SCFIterInfo ] 1
    print[ P_OrbEn ] 0
    print[ P_Cartesian ] 0
end
*xyz 0 1
 O        1.1181990000     0.3083910000     0.4771480000 
 C        2.1979410000    -0.0583750000     0.0910530000 
 C        2.8851880000     0.5018980000    -1.0417740000 
 C        3.4946750000     0.9416940000    -1.9852870000 
 C        4.2279390000     1.4546390000    -3.1033190000 
 C        3.5880990000     1.5818120000    -4.4215680000 
 O        3.8320280000     2.7162210000    -3.6245830000 
 H        2.7475690000    -0.8747470000     0.5975620000 
 H        5.3035220000     1.2981240000    -3.0691800000 
 H        2.5451450000     1.2966960000    -4.5252680000 
 H        4.2097950000     1.4820570000    -5.3076720000 
*
