! RI PBE def2-SVP def2-SVP/J NBO PAL2
% maxcore 2000
% output
    # printlevel mini
    print[ P_Basis ] 0
    print[ P_SCFInfo ] 1
    print[ P_SCFIterInfo ] 1
    print[ P_OrbEn ] 0
    print[ P_Cartesian ] 0
end
*xyz 0 1
 O        1.2336750000     0.4791830000     0.1449110000 
 C        2.6276020000     0.3184320000     0.0522750000 
 C        3.1435260000    -0.5123570000     1.1834580000 
 C        2.3604200000    -1.0503190000     2.1085220000 
 C        4.6216900000    -0.6584670000     1.2014450000 
 C        5.2844750000    -1.9267220000     1.4756760000 
 O        5.2039710000    -1.4292990000     0.1500480000 
 H        0.9229380000     0.8959670000    -0.6609240000 
 H        3.1426900000     1.2929090000     0.0709670000 
 H        2.9165030000    -0.1732680000    -0.8880040000 
 H        1.2881300000    -0.9046480000     2.0803250000 
 H        2.7762820000    -1.6406310000     2.9167270000 
 H        5.1782920000     0.2564630000     1.4115480000 
 H        4.6789640000    -2.8062170000     1.6765000000 
 H        6.2809420000    -1.9283240000     1.9107260000 
*
