! RI PBE def2-SVP def2-SVP/J NBO PAL2
% maxcore 2000
% output
    # printlevel mini
    print[ P_Basis ] 0
    print[ P_SCFInfo ] 1
    print[ P_SCFIterInfo ] 1
    print[ P_OrbEn ] 0
    print[ P_Cartesian ] 0
end
*xyz 0 1
 O        1.0007510000    -0.1130900000    -0.0381590000 
 C        2.3929390000     0.0914130000     0.0990640000 
 C        2.8482390000     1.0746060000    -0.8664230000 
 C        3.2438740000     1.8961770000    -1.6497900000 
 C        3.7238080000     2.8519070000    -2.6061050000 
 C        2.8663260000     3.9395000000    -3.0895800000 
 O        3.9039540000     4.1961760000    -2.1686010000 
 H        0.7293860000    -0.7426220000     0.6349240000 
 H        2.9503020000    -0.8422690000    -0.0622170000 
 H        2.6456360000     0.4531990000     1.1058470000 
 H        4.5100290000     2.4951130000    -3.2679280000 
 H        1.8580260000     4.0209890000    -2.6935040000 
 H        3.0219290000     4.3234910000    -4.0949270000 
*
