! RI PBE def2-SVP def2-SVP/J NBO PAL2
% maxcore 2000
% output
    # printlevel mini
    print[ P_Basis ] 0
    print[ P_SCFInfo ] 1
    print[ P_SCFIterInfo ] 1
    print[ P_OrbEn ] 0
    print[ P_Cartesian ] 0
end
*xyz 0 1
 O        2.6666490000     0.0762020000     1.2523030000 
 C        2.5231590000     0.0578450000     0.0575300000 
 C        3.0642570000    -1.0812080000    -0.7982140000 
 C        2.0901930000    -1.6340360000    -1.7192800000 
 C        1.2729940000    -2.0954520000    -2.4658410000 
 C        1.8669320000     1.1363220000    -0.6518250000 
 C        1.3448670000     2.0388780000    -1.2478230000 
 H        3.4400670000    -1.8446070000    -0.1133220000 
 H        3.9197660000    -0.6851670000    -1.3602350000 
 H        0.5487860000    -2.5053540000    -3.1294870000 
 H        0.8759400000     2.8426780000    -1.7667170000 
*
