! RI PBE def2-SVP def2-SVP/J NBO PAL2
% maxcore 2000
% output
    # printlevel mini
    print[ P_Basis ] 0
    print[ P_SCFInfo ] 1
    print[ P_SCFIterInfo ] 1
    print[ P_OrbEn ] 0
    print[ P_Cartesian ] 0
end
*xyz 0 1
 O        1.2398410000     0.3576090000    -0.5799850000 
 C        2.3981860000     0.2084660000    -0.2844480000 
 C        2.8631960000    -0.5032110000     0.9074770000 
 C        4.1646520000    -0.6100740000     1.1674930000 
 C        4.7478540000    -1.2949030000     2.3637610000 
 C        5.7681170000    -2.2677140000     2.0007140000 
 C        6.6068450000    -3.0638800000     1.6822880000 
 H        3.2098530000     0.6182760000    -0.9248030000 
 H        2.1033350000    -0.9311500000     1.5550410000 
 H        4.8788240000    -0.1693950000     0.4740770000 
 H        3.9582070000    -1.7789510000     2.9453950000 
 H        5.2026780000    -0.5390250000     3.0178150000 
 H        7.3497230000    -3.7743490000     1.4057570000 
*
