! RI PBE def2-SVP def2-SVP/J NBO PAL2
% maxcore 2000
% output
    # printlevel mini
    print[ P_Basis ] 0
    print[ P_SCFInfo ] 1
    print[ P_SCFIterInfo ] 1
    print[ P_OrbEn ] 0
    print[ P_Cartesian ] 0
end
*xyz 0 1
 O        1.4282870000     0.4913240000     0.8325400000 
 C        2.1850850000     0.0928970000     0.0027440000 
 C        2.9622490000    -1.2330360000     0.1409460000 
 C        2.5664810000    -2.1149350000    -0.9504820000 
 C        2.1967150000    -2.7992320000    -1.8627120000 
 C        4.3890700000    -0.9335300000     0.1410950000 
 C        5.5480980000    -0.6272760000     0.1445560000 
 H        2.3938170000     0.6405190000    -0.9365140000 
 H        2.6695250000    -1.6695130000     1.1020510000 
 H        1.8782440000    -3.4205350000    -2.6665560000 
 H        6.5818290000    -0.3723820000     0.1505410000 
*
