! RI PBE def2-SVP def2-SVP/J NBO PAL2
% maxcore 2000
% output
    # printlevel mini
    print[ P_Basis ] 0
    print[ P_SCFInfo ] 1
    print[ P_SCFIterInfo ] 1
    print[ P_OrbEn ] 0
    print[ P_Cartesian ] 0
end
*xyz 0 1
 O        3.0857730000     2.3867060000     3.2249400000 
 C        2.4853250000     2.3714430000     2.1843500000 
 C        2.9766610000     1.7415160000     0.9162280000 
 C        4.3712470000     1.1507200000     0.9935390000 
 C        5.4785120000     2.2066610000     1.0758840000 
 C        5.5168480000     3.0860690000    -0.0815430000 
 C        5.5283790000     3.8013310000    -1.0465590000 
 H        1.4787380000     2.8384530000     2.1115430000 
 H        2.9047440000     2.4955890000     0.1212950000 
 H        2.2345060000     0.9780870000     0.6464640000 
 H        4.5433830000     0.5214920000     0.1169040000 
 H        4.4450960000     0.5112910000     1.8766960000 
 H        6.4471680000     1.7064120000     1.1728680000 
 H        5.3459600000     2.8041670000     1.9824190000 
 H        5.5526700000     4.4403620000    -1.8972290000 
*
