! RI PBE def2-SVP def2-SVP/J NBO PAL2
% maxcore 2000
% output
    # printlevel mini
    print[ P_Basis ] 0
    print[ P_SCFInfo ] 1
    print[ P_SCFIterInfo ] 1
    print[ P_OrbEn ] 0
    print[ P_Cartesian ] 0
end
*xyz 0 1
 O        1.1352970000     0.2361010000     0.7192840000 
 C        2.5373000000     0.1936790000     0.6374630000 
 C        3.0795100000     1.4041660000    -0.1416360000 
 C        2.5562380000     1.4250920000    -1.5379900000 
 C        1.6403710000     2.2739120000    -1.9898080000 
 C        3.1252430000     0.1377950000     2.0092180000 
 C        2.4339140000     0.1963480000     3.1366350000 
 H        0.8040950000     0.5054290000    -0.1448160000 
 H        2.8548170000    -0.7181180000     0.1007110000 
 H        4.1735970000     1.3534150000    -0.1474490000 
 H        2.7871690000     2.3123780000     0.3931780000 
 H        2.9332490000     0.6519810000    -2.2063580000 
 H        1.2420450000     3.0623370000    -1.3581070000 
 H        1.2723240000     2.2248210000    -3.0082410000 
 H        4.2085810000     0.0425080000     2.0346550000 
 H        1.3543540000     0.2835320000     3.1239430000 
 H        2.9296880000     0.1534150000     4.0992170000 
*
