! RI PBE def2-SVP def2-SVP/J NBO PAL2
% maxcore 2000
% output
    # printlevel mini
    print[ P_Basis ] 0
    print[ P_SCFInfo ] 1
    print[ P_SCFIterInfo ] 1
    print[ P_OrbEn ] 0
    print[ P_Cartesian ] 0
end
*xyz 0 1
 O        0.8713050000     0.0751430000     0.0490970000 
 C        2.2777900000    -0.0213100000     0.0766890000 
 C        2.8974580000     0.4674080000    -1.2446230000 
 C        2.4226210000    -0.3634920000    -2.3888570000 
 C        1.5536350000     0.0433230000    -3.3066280000 
 C        2.7829480000     0.7536920000     1.2035280000 
 C        3.2372880000     1.3846860000     2.1167220000 
 H        0.5878620000    -0.2482500000    -0.8149160000 
 H        2.5811060000    -1.0693130000     0.2321050000 
 H        3.9863590000     0.4143100000    -1.1538540000 
 H        2.6194460000     1.5150040000    -1.3845170000 
 H        2.7989300000    -1.3845720000    -2.4341330000 
 H        1.1589850000     1.0549500000    -3.3007240000 
 H        1.2226620000    -0.6106030000    -4.1052490000 
 H        3.6280040000     1.9457240000     2.9324480000 
*
