! RI PBE def2-SVP def2-SVP/J NBO PAL2
% maxcore 2000
% output
    # printlevel mini
    print[ P_Basis ] 0
    print[ P_SCFInfo ] 1
    print[ P_SCFIterInfo ] 1
    print[ P_OrbEn ] 0
    print[ P_Cartesian ] 0
end
*xyz 0 1
 O        0.9585760000    -0.0972540000    -0.0308760000 
 C        2.3716810000    -0.1066280000    -0.0387740000 
 C        2.9010580000    -1.5420070000     0.1513210000 
 C        4.3429030000    -1.6120470000     0.2904010000 
 C        5.5350350000    -1.6492750000     0.4210310000 
 C        2.8265670000     0.4659580000    -1.2990520000 
 C        3.2223910000     0.9219800000    -2.3344520000 
 H        0.6649870000    -0.2625750000     0.8693380000 
 H        2.7682610000     0.5153780000     0.7757540000 
 H        2.5658330000    -2.1465480000    -0.6959390000 
 H        2.4302420000    -1.9557620000     1.0501660000 
 H        6.5933720000    -1.6862290000     0.5267830000 
 H        3.5693040000     1.3300100000    -3.2542830000 
*
