! RI PBE def2-SVP def2-SVP/J NBO PAL2
% maxcore 2000
% output
    # printlevel mini
    print[ P_Basis ] 0
    print[ P_SCFInfo ] 1
    print[ P_SCFIterInfo ] 1
    print[ P_OrbEn ] 0
    print[ P_Cartesian ] 0
end
*xyz 0 1
 O        1.0086570000     0.4517410000    -0.7433270000 
 C        1.0992700000    -0.8948850000    -0.3127250000 
 C        1.9915970000    -1.0596710000     0.8843240000 
 C        1.5085830000    -1.5130810000     2.0366560000 
 C        3.4326160000    -0.6799150000     0.6686910000 
 C        4.2394210000    -0.5025230000     1.9093320000 
 C        5.3092900000    -1.2156610000     2.2311020000 
 H        0.6467980000     0.9656200000    -0.0158820000 
 H        1.5087280000    -1.4424440000    -1.1675780000 
 H        0.1073370000    -1.3105540000    -0.0960060000 
 H        0.4617520000    -1.7813610000     2.1346780000 
 H        2.1391360000    -1.6468990000     2.9083880000 
 H        3.4416760000     0.2519790000     0.0889910000 
 H        3.9001810000    -1.4344410000     0.0233600000 
 H        3.9057010000     0.2837870000     2.5842920000 
 H        5.6728330000    -2.0127250000     1.5894870000 
 H        5.8640320000    -1.0272560000     3.1430160000 
*
