! RI PBE def2-SVP def2-SVP/J NBO PAL2
% maxcore 2000
% output
    # printlevel mini
    print[ P_Basis ] 0
    print[ P_SCFInfo ] 1
    print[ P_SCFIterInfo ] 1
    print[ P_OrbEn ] 0
    print[ P_Cartesian ] 0
end
*xyz 0 1
 O        2.9891270000    -0.4301920000     1.0701760000 
 C        2.3083700000     0.0440700000    -0.0792400000 
 C        2.6807040000     1.4744000000    -0.3112180000 
 C        1.7662890000     2.4303120000    -0.4050620000 
 C        4.1567140000     1.7631400000    -0.4320270000 
 C        4.7862500000     1.0649650000    -1.5443040000 
 C        5.2950630000     0.4859590000    -2.4648450000 
 H        3.0734110000    -1.3832700000     1.0051550000 
 H        1.2217280000    -0.0369560000     0.0441820000 
 H        2.5969920000    -0.5399020000    -0.9636630000 
 H        0.7110740000     2.2120240000    -0.2824680000 
 H        2.0374440000     3.4597960000    -0.6118770000 
 H        4.6488280000     1.4529140000     0.4963420000 
 H        4.3140470000     2.8394720000    -0.5409560000 
 H        5.7533700000    -0.0202420000    -3.2810150000 
*
