! RI PBE def2-SVP def2-SVP/J NBO PAL2
% maxcore 2000
% output
    # printlevel mini
    print[ P_Basis ] 0
    print[ P_SCFInfo ] 1
    print[ P_SCFIterInfo ] 1
    print[ P_OrbEn ] 0
    print[ P_Cartesian ] 0
end
*xyz 0 1
 O        2.9237940000     0.8804920000    -1.0475920000 
 C        2.5329980000     0.0366100000     0.0172170000 
 C        3.0511050000    -1.3750000000    -0.2582270000 
 C        2.4531660000    -1.9252700000    -1.5211410000 
 C        1.7037510000    -3.0163120000    -1.5821640000 
 C        4.5512760000    -1.3883740000    -0.3260430000 
 C        5.3319510000    -2.0878340000     0.4845250000 
 H        2.5973080000     1.7654710000    -0.8747290000 
 H        1.4391940000     0.0004720000     0.1088420000 
 H        2.9511120000     0.3873090000     0.9702730000 
 H        2.7320120000    -2.0004830000     0.5829910000 
 H        2.6652380000    -1.3624890000    -2.4264520000 
 H        1.4762590000    -3.6008360000    -0.6955300000 
 H        1.2923290000    -3.3694800000    -2.5207960000 
 H        4.9929900000    -0.7668680000    -1.1005770000 
 H        4.9203250000    -2.7194370000     1.2663050000 
 H        6.4118920000    -2.0593710000     0.3953880000 
*
