! RI PBE def2-SVP def2-SVP/J NBO PAL2
% maxcore 2000
% output
    # printlevel mini
    print[ P_Basis ] 0
    print[ P_SCFInfo ] 1
    print[ P_SCFIterInfo ] 1
    print[ P_OrbEn ] 0
    print[ P_Cartesian ] 0
end
*xyz 0 1
 O        2.7903900000     1.1568500000     0.4778530000 
 C        2.4423770000    -0.1577740000     0.1139540000 
 C        3.0088060000    -0.4525240000    -1.2775290000 
 C        2.4902490000     0.5223370000    -2.3008970000 
 C        1.7275930000     0.1774430000    -3.3264840000 
 C        4.4686410000    -0.4708000000    -1.2619460000 
 C        5.6686350000    -0.4879130000    -1.2543240000 
 H        2.5463390000     1.2987570000     1.3943410000 
 H        1.3520370000    -0.2818460000     0.0676400000 
 H        2.8490940000    -0.8908910000     0.8217150000 
 H        2.6585740000    -1.4558370000    -1.5494460000 
 H        2.7743920000     1.5579010000    -2.1437310000 
 H        1.4402020000    -0.8550390000    -3.5019940000 
 H        1.3653440000     0.9147610000    -4.0333250000 
 H        6.7326470000    -0.5002950000    -1.2493370000 
*
