! RI PBE def2-SVP def2-SVP/J NBO PAL2
% maxcore 2000
% output
    # printlevel mini
    print[ P_Basis ] 0
    print[ P_SCFInfo ] 1
    print[ P_SCFIterInfo ] 1
    print[ P_OrbEn ] 0
    print[ P_Cartesian ] 0
end
*xyz 0 1
 O        2.5117620000     0.2869690000    -1.3733870000 
 C        2.1628820000    -0.0495360000    -0.0624470000 
 C        2.7788140000     0.9285880000     0.9656550000 
 C        2.3348910000     0.6042950000     2.3162540000 
 C        1.9353380000     0.3102760000     3.4078470000 
 C        4.2344310000     0.9225220000     0.8413510000 
 C        5.4220280000     0.8891430000     0.6726570000 
 H        3.4708710000     0.2354540000    -1.4487200000 
 H        2.4672070000    -1.0695620000     0.2016010000 
 H        1.0762920000     0.0148430000     0.0087430000 
 H        2.4202420000     1.9332000000     0.7071210000 
 H        1.5892830000     0.0578290000     4.3823060000 
 H        6.4795910000     0.8712590000     0.5510380000 
*
