! RI PBE def2-SVP def2-SVP/J NBO PAL2
% maxcore 2000
% output
    # printlevel mini
    print[ P_Basis ] 0
    print[ P_SCFInfo ] 1
    print[ P_SCFIterInfo ] 1
    print[ P_OrbEn ] 0
    print[ P_Cartesian ] 0
end
*xyz 0 1
 O        1.0535710000     0.5305020000    -0.0090040000 
 C        2.3551750000    -0.0232170000    -0.0581020000 
 C        2.8765150000     0.0513100000    -1.4114630000 
 C        3.3283790000     0.0976910000    -2.5240560000 
 C        3.8747320000     0.1794040000    -3.8710990000 
 C        5.0074500000     1.1587460000    -3.9853560000 
 C        6.2042240000     0.8602080000    -4.4657970000 
 H        0.7398110000     0.4586230000     0.8961170000 
 H        2.3486100000    -1.0756800000     0.2594020000 
 H        3.0391000000     0.5155980000     0.6130580000 
 H        3.0652450000     0.4792610000    -4.5493860000 
 H        4.2047870000    -0.8107630000    -4.2013960000 
 H        4.7935560000     2.1681840000    -3.6437750000 
 H        6.4467650000    -0.1429670000    -4.8028700000 
 H        6.9860810000     1.6069000000    -4.5392730000 
*
