! RI PBE def2-SVP def2-SVP/J NBO PAL2
% maxcore 2000
% output
    # printlevel mini
    print[ P_Basis ] 0
    print[ P_SCFInfo ] 1
    print[ P_SCFIterInfo ] 1
    print[ P_OrbEn ] 0
    print[ P_Cartesian ] 0
end
*xyz 0 1
 O        1.9125580000    -0.7723060000     0.7811480000 
 C        2.3151620000     0.2480880000    -0.1114900000 
 C        2.7675680000    -0.3382500000    -1.3611960000 
 C        3.1390830000    -0.7973220000    -2.4059130000 
 C        3.5976880000    -1.3762750000    -3.6627850000 
 C        2.8369610000    -0.9339990000    -4.8262590000 
 C        2.2227810000    -0.5775830000    -5.7919860000 
 H        1.6103950000    -0.3510630000     1.5898870000 
 H        3.1329270000     0.8468660000     0.3139880000 
 H        1.4857100000     0.9354240000    -0.3299830000 
 H        3.5427730000    -2.4690320000    -3.5919360000 
 H        4.6565800000    -1.1359190000    -3.8138000000 
 H        1.6728150000    -0.2590300000    -6.6455740000 
*
