! RI PBE def2-SVP def2-SVP/J NBO PAL2
% maxcore 2000
% output
    # printlevel mini
    print[ P_Basis ] 0
    print[ P_SCFInfo ] 1
    print[ P_SCFIterInfo ] 1
    print[ P_OrbEn ] 0
    print[ P_Cartesian ] 0
end
*xyz 0 1
 O        1.6550410000    -0.5904420000     2.7608250000 
 C        2.2378000000    -1.8756790000     2.6697410000 
 C        3.0484460000    -1.9396660000     1.3876650000 
 C        4.1960570000    -0.9898060000     1.3726690000 
 C        5.4701610000    -1.3356730000     1.1737980000 
 C        6.5725020000    -0.3972380000     1.1657890000 
 C        7.8473420000    -0.7322480000     0.9669290000 
 H        1.2045370000    -0.5150050000     3.6044060000 
 H        1.4633140000    -2.6547600000     2.6475020000 
 H        2.8928820000    -2.0725070000     3.5292590000 
 H        2.3673580000    -1.7121880000     0.5579040000 
 H        3.4038220000    -2.9645020000     1.2447300000 
 H        3.9527270000     0.0562830000     1.5451230000 
 H        5.7196040000    -2.3823570000     1.0023350000 
 H        6.3165520000     0.6466370000     1.3361160000 
 H        8.1389330000    -1.7632640000     0.7929990000 
 H        8.6367440000     0.0092160000     0.9707210000 
*
