! RI PBE def2-SVP def2-SVP/J NBO PAL2
% maxcore 2000
% output
    # printlevel mini
    print[ P_Basis ] 0
    print[ P_SCFInfo ] 1
    print[ P_SCFIterInfo ] 1
    print[ P_OrbEn ] 0
    print[ P_Cartesian ] 0
end
*xyz 0 1
 O        0.8837620000     0.5162770000     1.7667380000 
 C        2.2808960000     0.7281990000     1.8183990000 
 C        2.9554340000    -0.4945280000     1.2215460000 
 C        4.4533880000    -0.4256800000     1.3064620000 
 C        5.1893950000    -0.0665360000     0.2497880000 
 C        5.1191920000    -0.7420140000     2.5682130000 
 C        4.5339990000    -1.1714060000     3.6851820000 
 H        0.4436900000     1.2878880000     2.1297020000 
 H        2.6199430000     0.8784380000     2.8511440000 
 H        2.5688780000     1.6168610000     1.2407970000 
 H        2.6466770000    -0.5841920000     0.1776890000 
 H        2.5808640000    -1.3810470000     1.7418150000 
 H        4.7349360000     0.1607660000    -0.7079270000 
 H        6.2698700000     0.0038420000     0.3139450000 
 H        6.1996570000    -0.6160610000     2.5618770000 
 H        3.4628510000    -1.3230630000     3.7585170000 
 H        5.1182680000    -1.3924530000     4.5701240000 
*
