! RI PBE def2-SVP def2-SVP/J NBO PAL2
% maxcore 2000
% output
    # printlevel mini
    print[ P_Basis ] 0
    print[ P_SCFInfo ] 1
    print[ P_SCFIterInfo ] 1
    print[ P_OrbEn ] 0
    print[ P_Cartesian ] 0
end
*xyz 0 1
 O        0.8811830000     0.0832450000     0.2277120000 
 C        2.2638590000     0.1312640000    -0.0594540000 
 C        2.9977770000    -0.4575230000     1.1298300000 
 C        4.4872420000    -0.5058140000     0.9260430000 
 C        5.3403480000     0.2079820000     1.6648070000 
 C        4.9648250000    -1.3616330000    -0.1110040000 
 C        5.3289910000    -2.0982570000    -0.9901150000 
 H        0.3997010000     0.4238110000    -0.5291600000 
 H        2.5999410000     1.1648020000    -0.2215990000 
 H        2.5033850000    -0.4456690000    -0.9619490000 
 H        2.6155810000    -1.4696230000     1.2971280000 
 H        2.7708590000     0.1336080000     2.0198900000 
 H        4.9791020000     0.8553040000     2.4555360000 
 H        6.4093440000     0.1568750000     1.5007860000 
 H        5.6651820000    -2.7474830000    -1.7635610000 
*
