! RI PBE def2-SVP def2-SVP/J NBO PAL2
% maxcore 2000
% output
    # printlevel mini
    print[ P_Basis ] 0
    print[ P_SCFInfo ] 1
    print[ P_SCFIterInfo ] 1
    print[ P_OrbEn ] 0
    print[ P_Cartesian ] 0
end
*xyz 0 1
 O        1.0145260000     0.0303750000    -0.0272090000 
 C        2.4149920000     0.1150120000    -0.1772190000 
 C        2.9455520000    -1.3080370000    -0.2441190000 
 C        4.3869140000    -1.3544530000    -0.4019300000 
 C        5.5853620000    -1.3607540000    -0.5377980000 
 C        6.9945260000    -1.4237590000    -0.6790600000 
 C        7.7574060000    -0.4358320000    -1.1467870000 
 H        0.6555400000     0.9189790000     0.0189680000 
 H        2.8797490000     0.6370910000     0.6687980000 
 H        2.6899700000     0.6489270000    -1.0958170000 
 H        2.4596530000    -1.8246450000    -1.0789160000 
 H        2.6489960000    -1.8384290000     0.6668010000 
 H        7.4608900000    -2.3581200000    -0.3748630000 
 H        7.3308130000     0.5095460000    -1.4601690000 
 H        8.8308720000    -0.5551000000    -1.2252800000 
*
