! RI PBE def2-SVP def2-SVP/J NBO PAL2
% maxcore 2000
% output
    # printlevel mini
    print[ P_Basis ] 0
    print[ P_SCFInfo ] 1
    print[ P_SCFIterInfo ] 1
    print[ P_OrbEn ] 0
    print[ P_Cartesian ] 0
end
*xyz 0 1
 O        1.0488670000     0.1442350000    -0.0767060000 
 C        2.4545870000     0.0610440000    -0.0104380000 
 C        3.0043090000     1.1741170000    -0.8907040000 
 C        4.4511570000     1.2003920000    -0.9109500000 
 C        5.6592010000     1.2041830000    -0.9134450000 
 C        7.0225990000     1.2149310000    -0.9219870000 
 C        8.2282290000     1.2238730000    -0.9272030000 
 H        0.6725140000    -0.5481750000     0.4707980000 
 H        2.8201910000    -0.9066040000    -0.3765360000 
 H        2.8197300000     0.1946270000     1.0156530000 
 H        2.6185880000     2.1331900000    -0.5288710000 
 H        2.6190370000     1.0426850000    -1.9074710000 
 H        9.2922420000     1.2330510000    -0.9334390000 
*
