! RI PBE def2-SVP def2-SVP/J NBO PAL2
% maxcore 2000
% output
    # printlevel mini
    print[ P_Basis ] 0
    print[ P_SCFInfo ] 1
    print[ P_SCFIterInfo ] 1
    print[ P_OrbEn ] 0
    print[ P_Cartesian ] 0
end
*xyz 0 1
 O        2.7447650000     0.1290070000    -1.2898030000 
 C        2.0997980000    -0.2128960000    -0.0761840000 
 C        2.5984160000    -1.5663250000     0.3732500000 
 C        4.0849830000    -1.5869210000     0.6909940000 
 C        4.5937910000    -2.9611750000     1.1260270000 
 C        4.0253150000    -3.4217480000     2.4274510000 
 C        3.3393740000    -4.5404460000     2.6174630000 
 H        2.4493450000     1.0009100000    -1.5594500000 
 H        1.0103150000    -0.2487570000    -0.2135210000 
 H        2.3129320000     0.5364100000     0.7008640000 
 H        2.3800950000    -2.2969650000    -0.4142720000 
 H        2.0220130000    -1.8736510000     1.2520960000 
 H        4.2968180000    -0.8562440000     1.4822380000 
 H        4.6430870000    -1.2577860000    -0.1889800000 
 H        5.6858690000    -2.9124860000     1.2170870000 
 H        4.3769770000    -3.7013480000     0.3482210000 
 H        4.2005050000    -2.7636970000     3.2787330000 
 H        3.1378850000    -5.2257190000     1.7994040000 
 H        2.9593360000    -4.8164740000     3.5944840000 
*
