! RI PBE def2-SVP def2-SVP/J NBO PAL2
% maxcore 2000
% output
    # printlevel mini
    print[ P_Basis ] 0
    print[ P_SCFInfo ] 1
    print[ P_SCFIterInfo ] 1
    print[ P_OrbEn ] 0
    print[ P_Cartesian ] 0
end
*xyz 0 1
 O        0.6024000000    -0.6736070000     0.9168070000 
 C        1.9446330000    -0.5009490000     0.5087520000 
 C        2.8038280000    -1.4725100000     1.2831770000 
 C        4.2742090000    -1.3698240000     0.9174060000 
 C        5.1344870000    -2.3561520000     1.7076720000 
 C        6.5468280000    -2.2778880000     1.3753970000 
 C        7.7098320000    -2.1983800000     1.0875340000 
 H        0.0512720000    -0.0577450000     0.4291920000 
 H        2.2841870000     0.5274160000     0.7005040000 
 H        2.0544210000    -0.6880440000    -0.5694730000 
 H        2.4369510000    -2.4874050000     1.0953080000 
 H        2.6656980000    -1.2826680000     2.3531260000 
 H        4.6402240000    -0.3546740000     1.1017490000 
 H        4.4123160000    -1.5581410000    -0.1521320000 
 H        4.7814310000    -3.3780210000     1.5281970000 
 H        5.0095490000    -2.1750460000     2.7812980000 
 H        8.7417140000    -2.1322720000     0.8362780000 
*
