! RI PBE def2-SVP def2-SVP/J NBO PAL2
% maxcore 2000
% output
    # printlevel mini
    print[ P_Basis ] 0
    print[ P_SCFInfo ] 1
    print[ P_SCFIterInfo ] 1
    print[ P_OrbEn ] 0
    print[ P_Cartesian ] 0
end
*xyz 0 1
 O        0.9354780000    -0.4165860000    -0.8329650000 
 C        2.2885990000    -0.4780500000    -0.4256890000 
 C        2.3917450000    -1.4202670000     0.7502620000 
 C        3.8146830000    -1.5637030000     1.2640730000 
 C        3.9245220000    -2.5024000000     2.4546430000 
 C        5.3465570000    -2.7003080000     2.9453750000 
 O        6.1991320000    -3.2795520000     1.9768650000 
 H        0.8673930000     0.1807850000    -1.5807140000 
 H        2.6554950000     0.5172620000    -0.1349600000 
 H        2.9285480000    -0.8381160000    -1.2443830000 
 H        2.0004060000    -2.3977000000     0.4474280000 
 H        1.7350340000    -1.0554140000     1.5476390000 
 H        4.2041570000    -0.5788720000     1.5512220000 
 H        4.4673400000    -1.9261710000     0.4632180000 
 H        3.4957870000    -3.4801840000     2.1955970000 
 H        3.3212930000    -2.1215600000     3.2876620000 
 H        5.3436340000    -3.2979990000     3.8672570000 
 H        5.7969400000    -1.7336770000     3.1886700000 
 H        5.8659450000    -4.1570890000     1.7720010000 
*
