! RI PBE def2-SVP def2-SVP/J NBO PAL2
% maxcore 2000
% output
    # printlevel mini
    print[ P_Basis ] 0
    print[ P_SCFInfo ] 1
    print[ P_SCFIterInfo ] 1
    print[ P_OrbEn ] 0
    print[ P_Cartesian ] 0
end
*xyz 0 1
 O        2.4766930000     0.7656120000    -1.4130980000 
 C        2.2080410000    -0.4015920000    -1.4414230000 
 C        3.1490880000    -1.5094590000    -1.0417550000 
 C        4.5282210000    -1.0584390000    -0.7274640000 
 C        5.6424440000    -1.6711060000    -1.1247710000 
 C        6.9564790000    -1.1477410000    -0.7465260000 
 O        8.0049760000    -1.6541360000    -1.0563300000 
 H        1.2023200000    -0.7482530000    -1.7612110000 
 H        3.1329210000    -2.2834980000    -1.8163810000 
 H        2.6894950000    -1.9779470000    -0.1567300000 
 H        4.6117150000    -0.1525690000    -0.1305220000 
 H        5.6287790000    -2.5695390000    -1.7355840000 
 H        6.9263270000    -0.2208230000    -0.1333040000 
*
