! RI PBE def2-SVP def2-SVP/J NBO PAL2
% maxcore 2000
% output
    # printlevel mini
    print[ P_Basis ] 0
    print[ P_SCFInfo ] 1
    print[ P_SCFIterInfo ] 1
    print[ P_OrbEn ] 0
    print[ P_Cartesian ] 0
end
*xyz 0 1
 O        1.0286980000     0.3300600000    -0.1297920000 
 C        2.0755030000     0.2942820000     0.4442870000 
 C        2.8623200000    -0.9940520000     0.6435140000 
 C        4.2912680000    -0.7935070000     0.5624370000 
 C        5.4719250000    -0.5592200000     0.4946940000 
 C        6.8932490000    -0.3496290000     0.3957090000 
 O        7.4465270000     0.6750780000     0.7002610000 
 H        2.5365440000     1.1995040000     0.8877450000 
 H        2.5078480000    -1.7410280000    -0.0707840000 
 H        2.6097360000    -1.3612450000     1.6484550000 
 H        7.4577720000    -1.2196620000     0.0098850000 
*
