! RI PBE def2-SVP def2-SVP/J NBO PAL2
% maxcore 2000
% output
    # printlevel mini
    print[ P_Basis ] 0
    print[ P_SCFInfo ] 1
    print[ P_SCFIterInfo ] 1
    print[ P_OrbEn ] 0
    print[ P_Cartesian ] 0
end
*xyz 0 1
 O        1.6386040000    -0.7978160000     0.7601160000 
 C        2.6294840000     0.0241930000     0.1718290000 
 C        2.9608640000    -0.5234560000    -1.1713520000 
 C        4.1909230000    -0.8083030000    -1.5799040000 
 C        4.5444320000    -1.2993620000    -2.9485280000 
 C        5.2041000000    -0.1985090000    -3.7440450000 
 O        6.3326320000    -0.2272800000    -4.1466840000 
 H        1.3035900000    -0.3569150000     1.5442240000 
 H        3.5360460000     0.0685240000     0.7901590000 
 H        2.2548640000     1.0526000000     0.0565960000 
 H        2.1122620000    -0.6897360000    -1.8324790000 
 H        5.0257000000    -0.6525730000    -0.8988110000 
 H        3.6329730000    -1.5948050000    -3.4801130000 
 H        5.2290400000    -2.1495580000    -2.9083940000 
 H        4.5557860000     0.6869860000    -3.9250320000 
*
