! RI PBE def2-SVP def2-SVP/J NBO PAL2
% maxcore 2000
% output
    # printlevel mini
    print[ P_Basis ] 0
    print[ P_SCFInfo ] 1
    print[ P_SCFIterInfo ] 1
    print[ P_OrbEn ] 0
    print[ P_Cartesian ] 0
end
*xyz 0 1
 O        3.0256280000     0.5095780000     1.1458400000 
 C        2.4273020000     0.2466410000    -0.1110760000 
 C        2.8485990000    -1.1102170000    -0.5813840000 
 C        1.9582370000    -1.9987240000    -1.0078920000 
 C        4.3239600000    -1.4091010000    -0.5669940000 
 C        4.7599890000    -2.0565060000     0.7284510000 
 O        5.4129310000    -3.0626320000     0.7766460000 
 H        2.9232450000     1.4422560000     1.3472020000 
 H        2.7606050000     0.9893720000    -0.8523650000 
 H        1.3336010000     0.2975270000    -0.0515680000 
 H        0.8952560000    -1.7849580000    -0.9880220000 
 H        2.2614300000    -2.9640470000    -1.3980310000 
 H        4.8920980000    -0.4754170000    -0.6613150000 
 H        4.6074720000    -2.0740910000    -1.3840440000 
 H        4.4333480000    -1.5344710000     1.6480530000 
*
