! RI PBE def2-SVP def2-SVP/J NBO PAL2
% maxcore 2000
% output
    # printlevel mini
    print[ P_Basis ] 0
    print[ P_SCFInfo ] 1
    print[ P_SCFIterInfo ] 1
    print[ P_OrbEn ] 0
    print[ P_Cartesian ] 0
end
*xyz 0 1
 O        2.8317660000    -1.5150980000     0.1200500000 
 C        2.4654120000    -0.1775480000     0.3321900000 
 C        3.0033810000     0.7597080000    -0.7466270000 
 C        2.5739280000     2.1809970000    -0.5382860000 
 C        1.9895740000     2.9407810000    -1.4539480000 
 C        4.5137970000     0.7143650000    -0.8197000000 
 O        5.2132880000     0.0501250000    -0.1012240000 
 H        3.7854190000    -1.5620530000     0.2506570000 
 H        2.8007240000     0.1792060000     1.3159060000 
 H        1.3739780000    -0.1396690000     0.3243100000 
 H        2.6487800000     0.4253500000    -1.7314620000 
 H        2.7789150000     2.5956720000     0.4471720000 
 H        1.7650010000     2.5643630000    -2.4470930000 
 H        1.7076670000     3.9653040000    -1.2407990000 
 H        4.9607500000     1.3623870000    -1.6021460000 
*
