! RI PBE def2-SVP def2-SVP/J NBO PAL2
% maxcore 2000
% output
    # printlevel mini
    print[ P_Basis ] 0
    print[ P_SCFInfo ] 1
    print[ P_SCFIterInfo ] 1
    print[ P_OrbEn ] 0
    print[ P_Cartesian ] 0
end
*xyz 0 1
 O        2.5477550000     0.0073820000    -0.8342060000 
 C        2.2747750000    -1.2562270000    -0.2606420000 
 C        2.8683620000    -1.2809270000     1.1357260000 
 C        4.3558470000    -1.1626140000     1.1402140000 
 C        5.1894320000    -2.0365570000     1.6942170000 
 C        6.6740440000    -1.8944790000     1.6873070000 
 O        7.2169780000    -1.8441470000     2.9959720000 
 H        2.2352300000     0.0092290000    -1.7412120000 
 H        2.7140320000    -2.0641070000    -0.8616360000 
 H        1.1919680000    -1.4306840000    -0.1972700000 
 H        2.5617020000    -2.2049020000     1.6346270000 
 H        2.4287860000    -0.4455180000     1.6942730000 
 H        4.7643410000    -0.2920680000     0.6300510000 
 H        4.7970420000    -2.9100520000     2.2138600000 
 H        6.9605940000    -1.0100560000     1.1020380000 
 H        7.1417470000    -2.7650530000     1.2179140000 
 H        6.7643660000    -1.1403090000     3.4688750000 
*
