! RI PBE def2-SVP def2-SVP/J NBO PAL2
% maxcore 2000
% output
    # printlevel mini
    print[ P_Basis ] 0
    print[ P_SCFInfo ] 1
    print[ P_SCFIterInfo ] 1
    print[ P_OrbEn ] 0
    print[ P_Cartesian ] 0
end
*xyz 0 1
 O        2.6219010000     0.2815450000     1.4151960000 
 C        2.2126320000    -0.0187210000     0.0971950000 
 C        2.8940370000     0.9627450000    -0.8410510000 
 C        4.3754630000     0.8388880000    -0.8254440000 
 C        5.1517040000     0.6669440000    -1.8967290000 
 C        6.6019790000     0.5546010000    -1.7560540000 
 O        7.3703680000     0.3968060000    -2.6721860000 
 H        2.2532400000    -0.3725120000     2.0126130000 
 H        1.1245430000     0.0808830000    -0.0109730000 
 H        2.4876010000    -1.0456650000    -0.1784820000 
 H        2.6172610000     1.9735930000    -0.5165810000 
 H        2.5075130000     0.8243340000    -1.8540480000 
 H        4.8462320000     0.8907010000     0.1550820000 
 H        4.7479310000     0.6043850000    -2.9036460000 
 H        6.9697960000     0.6251650000    -0.7083830000 
*
