! RI PBE def2-SVP def2-SVP/J NBO PAL2
% maxcore 2000
% output
    # printlevel mini
    print[ P_Basis ] 0
    print[ P_SCFInfo ] 1
    print[ P_SCFIterInfo ] 1
    print[ P_OrbEn ] 0
    print[ P_Cartesian ] 0
end
*xyz 0 1
 O        0.9250140000    -0.0338190000    -0.1748690000 
 C        2.3267560000    -0.1757630000    -0.1586060000 
 C        2.8920830000     0.9674590000    -0.9873020000 
 C        4.3371690000     0.9461640000    -1.0568490000 
 C        5.5417890000     0.8915770000    -1.0891350000 
 C        6.9769370000     0.8878930000    -1.1695290000 
 O        7.6860320000     0.0687860000    -0.6421440000 
 H        0.5358570000    -0.7449970000     0.3387150000 
 H        2.6428160000    -1.1320130000    -0.5938760000 
 H        2.7283770000    -0.1197520000     0.8608870000 
 H        2.5594700000     1.9198550000    -0.5607730000 
 H        2.4755020000     0.9188550000    -1.9990840000 
 H        7.4030590000     1.7158840000    -1.7683240000 
*
