! RI PBE def2-SVP def2-SVP/J NBO PAL2
% maxcore 2000
% output
    # printlevel mini
    print[ P_Basis ] 0
    print[ P_SCFInfo ] 1
    print[ P_SCFIterInfo ] 1
    print[ P_OrbEn ] 0
    print[ P_Cartesian ] 0
end
*xyz 0 1
 O        0.8935050000     0.0005080000    -0.1173380000 
 C        2.3050400000     0.0409730000    -0.0531120000 
 C        2.8542310000    -0.5297000000    -1.3393510000 
 C        4.3730850000    -0.5330160000    -1.3740970000 
 C        4.9237100000    -1.1053130000    -2.6640030000 
 C        6.4188560000    -1.1329820000    -2.7528530000 
 O        7.1667130000    -0.7447340000    -1.8976670000 
 H        0.5386290000     0.3635150000     0.6969700000 
 H        2.6765670000    -0.5453380000     0.8000280000 
 H        2.6631410000     1.0727740000     0.0763890000 
 H        2.4558320000     0.0547370000    -2.1760500000 
 H        2.4687500000    -1.5482160000    -1.4593120000 
 H        4.7701730000    -1.1083430000    -0.5316820000 
 H        4.7573690000     0.4836510000    -1.2434770000 
 H        4.5623290000    -0.5488650000    -3.5405360000 
 H        4.5751060000    -2.1343510000    -2.8316350000 
 H        6.8204740000    -1.5540910000    -3.7015850000 
*
