! RI PBE def2-SVP def2-SVP/J NBO PAL2
% maxcore 2000
% output
    # printlevel mini
    print[ P_Basis ] 0
    print[ P_SCFInfo ] 1
    print[ P_SCFIterInfo ] 1
    print[ P_OrbEn ] 0
    print[ P_Cartesian ] 0
end
*xyz 0 1
 O        1.0941140000    -0.5542910000     0.6330030000 
 C        2.1770390000    -1.0579770000     0.5558660000 
 C        3.4337270000    -0.2756030000     0.2474230000 
 C        4.5717190000    -0.5582520000     1.2007520000 
 O        5.1054810000     0.3065300000     1.8470760000 
 C        4.9916600000    -1.9447070000     1.2914290000 
 C        5.3203170000    -3.0990030000     1.3500860000 
 H        2.3164580000    -2.1492660000     0.6957060000 
 H        3.7582600000    -0.5943940000    -0.7527390000 
 H        3.2192200000     0.7919840000     0.2424600000 
 H        5.6287050000    -4.1170220000     1.4180390000 
*
