! RI PBE def2-SVP def2-SVP/J NBO PAL2
% maxcore 2000
% output
    # printlevel mini
    print[ P_Basis ] 0
    print[ P_SCFInfo ] 1
    print[ P_SCFIterInfo ] 1
    print[ P_OrbEn ] 0
    print[ P_Cartesian ] 0
end
*xyz 0 1
 O        1.2437760000     0.0058920000     0.2710100000 
 C        2.6496230000    -0.0171440000     0.4711100000 
 C        3.0162500000     1.3695290000     0.9610590000 
 C        3.0086450000     2.4209670000    -0.1148220000 
 O        3.0286250000     2.1990000000    -1.2927550000 
 C        3.0260040000    -1.0834520000     1.4517390000 
 C        3.8700830000    -2.0707600000     1.1880320000 
 H        0.9866260000    -0.8267280000    -0.1336510000 
 H        3.1679670000    -0.1947930000    -0.4798310000 
 H        4.0257390000     1.3751300000     1.3923300000 
 H        2.3397740000     1.6766290000     1.7660580000 
 H        3.0189770000     3.4676590000     0.2606210000 
 H        2.5390070000    -1.0208030000     2.4233880000 
 H        4.3555820000    -2.1534050000     0.2200050000 
 H        4.1120030000    -2.8280220000     1.9247970000 
*
