! RI PBE def2-SVP def2-SVP/J NBO PAL2
% maxcore 2000
% output
    # printlevel mini
    print[ P_Basis ] 0
    print[ P_SCFInfo ] 1
    print[ P_SCFIterInfo ] 1
    print[ P_OrbEn ] 0
    print[ P_Cartesian ] 0
end
*xyz 0 1
 O        1.0161030000    -0.0186080000     0.2265820000 
 C        2.4008510000     0.0867990000    -0.0110420000 
 C        2.7018140000     0.2023230000    -1.5052720000 
 C        2.2375280000    -0.9858880000    -2.2871830000 
 O        1.6119950000    -1.9044790000    -1.8229970000 
 C        2.9266910000     1.2435100000     0.7047210000 
 C        3.3896910000     2.1946010000     1.2696650000 
 H        0.7499800000    -0.8590130000    -0.1676470000 
 H        2.9182150000    -0.8062570000     0.3707250000 
 H        3.7745570000     0.3374310000    -1.6869940000 
 H        2.2126640000     1.0925140000    -1.9202700000 
 H        2.5049000000    -0.9821770000    -3.3641810000 
 H        3.7890210000     3.0377340000     1.7822840000 
*
