! RI PBE def2-SVP def2-SVP/J NBO PAL2
% maxcore 2000
% output
    # printlevel mini
    print[ P_Basis ] 0
    print[ P_SCFInfo ] 1
    print[ P_SCFIterInfo ] 1
    print[ P_OrbEn ] 0
    print[ P_Cartesian ] 0
end
*xyz 0 1
 O        3.6559120000    -0.8616950000     0.4977460000 
 C        2.4853690000    -0.1671360000     0.1271950000 
 C        2.8352770000     1.1493370000    -0.4705470000 
 C        4.0801110000     1.5741630000    -0.6177150000 
 O        4.3536980000     2.7866590000    -1.1702030000 
 C        5.6532270000     3.1482160000    -1.2855520000 
 C        6.0190150000     4.3075340000    -1.8098860000 
 H        3.4010590000    -1.7043940000     0.8778770000 
 H        1.8335190000    -0.0057520000     1.0001620000 
 H        1.8986710000    -0.7497960000    -0.6003410000 
 H        2.0114670000     1.7765180000    -0.7952910000 
 H        4.9367510000     0.9838870000    -0.3087800000 
 H        6.3698460000     2.4178790000    -0.9167200000 
 H        5.2908110000     5.0218760000    -2.1717420000 
 H        7.0694680000     4.5498950000    -1.8798820000 
*
