! RI PBE def2-SVP def2-SVP/J NBO PAL2
% maxcore 2000
% output
    # printlevel mini
    print[ P_Basis ] 0
    print[ P_SCFInfo ] 1
    print[ P_SCFIterInfo ] 1
    print[ P_OrbEn ] 0
    print[ P_Cartesian ] 0
end
*xyz 0 1
 O        0.8093340000    -1.2201580000    -0.0997980000 
 C        2.0381790000    -0.5690860000     0.0912160000 
 C        2.5599460000    -0.0629930000    -1.2144960000 
 C        1.9279390000    -0.1406650000    -2.3772590000 
 O        3.8002590000     0.4720430000    -1.0151560000 
 C        4.2830840000     1.3504060000    -1.9336150000 
 C        5.5807600000     1.4983430000    -2.1420060000 
 H        0.4887930000    -1.5158550000     0.7542420000 
 H        2.7975130000    -1.2410020000     0.5169980000 
 H        1.9449730000     0.2868280000     0.7757770000 
 H        0.9438960000    -0.5844910000    -2.4033080000 
 H        2.3744510000     0.1989970000    -3.3016430000 
 H        3.5236580000     1.9436380000    -2.4358900000 
 H        6.3101500000     0.8816670000    -1.6324570000 
 H        5.9278570000     2.2604200000    -2.8254170000 
*
