! RI PBE def2-SVP def2-SVP/J NBO PAL2
% maxcore 2000
% output
    # printlevel mini
    print[ P_Basis ] 0
    print[ P_SCFInfo ] 1
    print[ P_SCFIterInfo ] 1
    print[ P_OrbEn ] 0
    print[ P_Cartesian ] 0
end
*xyz 0 1
 O        2.7367500000     1.5289010000     0.0615340000 
 C        2.4007200000     0.1693970000    -0.0813210000 
 C        3.0278540000    -0.3367710000    -1.3816340000 
 C        2.4691450000     0.4895060000    -2.5418050000 
 O        1.3685340000     0.3093880000    -2.9754200000 
 C        4.4799780000    -0.3239240000    -1.3601910000 
 C        5.6794790000    -0.3034640000    -1.3752730000 
 H        2.3234300000     1.8702400000     0.8573150000 
 H        1.3159110000     0.0278420000    -0.1617920000 
 H        2.7772390000    -0.4328000000     0.7542880000 
 H        2.6676750000    -1.3604910000    -1.5328100000 
 H        3.1411770000     1.2697400000    -2.9467100000 
 H        6.7437770000    -0.2878840000    -1.3800390000 
*
