! RI PBE def2-SVP def2-SVP/J NBO PAL2
% maxcore 2000
% output
    # printlevel mini
    print[ P_Basis ] 0
    print[ P_SCFInfo ] 1
    print[ P_SCFIterInfo ] 1
    print[ P_OrbEn ] 0
    print[ P_Cartesian ] 0
end
*xyz 0 1
 O        0.9278670000     0.0302660000    -0.0727150000 
 C        2.3457700000     0.0235340000    -0.0147360000 
 C        2.8218510000    -1.4261270000     0.0178770000 
 C        2.3409020000    -2.2269130000    -1.2047620000 
 O        0.9716700000    -2.5189630000    -1.1566670000 
 C        4.2730290000    -1.4473170000     0.1087880000 
 C        5.4729590000    -1.4559140000     0.1491930000 
 H        0.6237900000     0.9336770000    -0.1824880000 
 H        2.7015220000     0.5469600000     0.8799190000 
 H        2.7756870000     0.5171150000    -0.8956040000 
 H        2.4005240000    -1.9087530000     0.9084300000 
 H        2.8705510000    -3.1808790000    -1.2355380000 
 H        2.6112450000    -1.6703530000    -2.1154120000 
 H        0.5147660000    -1.6904590000    -0.9664950000 
 H        6.5361870000    -1.4731460000     0.1953420000 
*
