! RI PBE def2-SVP def2-SVP/J NBO PAL2
% maxcore 2000
% output
    # printlevel mini
    print[ P_Basis ] 0
    print[ P_SCFInfo ] 1
    print[ P_SCFIterInfo ] 1
    print[ P_OrbEn ] 0
    print[ P_Cartesian ] 0
end
*xyz 0 1
 O        0.8194160000     0.2011360000    -0.7305920000 
 C        2.1132230000     0.1902840000    -0.1571960000 
 C        2.8783780000    -0.9357720000    -0.8085130000 
 C        4.2873540000    -1.0655750000    -0.2883770000 
 O        4.7190080000    -0.3212020000     0.5658490000 
 C        5.1616110000    -2.1301050000    -0.8338860000 
 C        4.8091170000    -3.0067490000    -1.7676890000 
 H        0.3162680000     0.9130840000    -0.3294180000 
 H        2.0708350000     0.0307680000     0.9267330000 
 H        2.6355470000     1.1393200000    -0.3264150000 
 H        2.9061460000    -0.7833870000    -1.8931030000 
 H        2.3468950000    -1.8810160000    -0.6523810000 
 H        6.1555400000    -2.1433480000    -0.3965830000 
 H        3.8209480000    -3.0071390000    -2.2144320000 
 H        5.5022140000    -3.7613890000    -2.1214080000 
*
