! RI PBE def2-SVP def2-SVP/J NBO PAL2
% maxcore 2000
% output
    # printlevel mini
    print[ P_Basis ] 0
    print[ P_SCFInfo ] 1
    print[ P_SCFIterInfo ] 1
    print[ P_OrbEn ] 0
    print[ P_Cartesian ] 0
end
*xyz 0 1
 O        0.7133960000     0.9926060000     1.0324160000 
 C        2.0686580000     0.6499350000     1.2500490000 
 C        2.9168600000     1.8332320000     0.8462560000 
 C        4.4102130000     1.5822880000     1.0331460000 
 O        4.8584340000     0.4808860000     0.2723860000 
 C        5.2008070000     2.8313050000     0.7767960000 
 C        6.2789900000     2.9066680000     0.0108810000 
 H        0.1700060000     0.2259420000     1.2263100000 
 H        2.3567320000    -0.2298570000     0.6629140000 
 H        2.2490230000     0.4150630000     2.3096900000 
 H        2.6154860000     2.7041030000     1.4371190000 
 H        2.7175400000     2.0815760000    -0.2029050000 
 H        4.5791310000     1.2829420000     2.0768160000 
 H        4.7816960000     0.7191990000    -0.6574780000 
 H        4.8263190000     3.7256930000     1.2700740000 
 H        6.6916760000     2.0285450000    -0.4736890000 
 H        6.7964350000     3.8463740000    -0.1400710000 
*
