! RI PBE def2-SVP def2-SVP/J NBO PAL2
% maxcore 2000
% output
    # printlevel mini
    print[ P_Basis ] 0
    print[ P_SCFInfo ] 1
    print[ P_SCFIterInfo ] 1
    print[ P_OrbEn ] 0
    print[ P_Cartesian ] 0
end
*xyz 0 1
 O        4.6654200000    -0.5395520000    -1.1936000000 
 C        4.4710940000     0.7254550000    -0.5899040000 
 C        3.0869430000     0.7620290000     0.0146900000 
 C        2.9083880000    -0.2615290000     1.1111680000 
 O        1.6028950000    -0.1159140000     1.6373030000 
 C        1.2506300000    -0.9541220000     2.6264500000 
 C        1.9774070000    -1.9160440000     3.1886830000 
 H        5.5447000000    -0.5677590000    -1.5765110000 
 H        4.5641270000     1.5312740000    -1.3297010000 
 H        5.2247810000     0.9037960000     0.1914260000 
 H        2.3445650000     0.5873970000    -0.7692550000 
 H        2.9044040000     1.7614630000     0.4207710000 
 H        3.6442020000    -0.1064240000     1.9124220000 
 H        3.0427990000    -1.2762200000     0.7223790000 
 H        0.2338660000    -0.7493530000     2.9456650000 
 H        2.9913440000    -2.1493910000     2.8947480000 
 H        1.5344550000    -2.5030460000     3.9810780000 
*
