! RI PBE def2-SVP def2-SVP/J NBO PAL2
% maxcore 2000
% output
    # printlevel mini
    print[ P_Basis ] 0
    print[ P_SCFInfo ] 1
    print[ P_SCFIterInfo ] 1
    print[ P_OrbEn ] 0
    print[ P_Cartesian ] 0
end
*xyz 0 1
 O        2.2485660000     0.1614020000    -0.7974230000 
 C        3.0061510000    -0.6876340000    -0.4220080000 
 C        3.8276710000    -0.5665510000     0.8342550000 
 O        4.5814990000    -1.7364950000     0.9914920000 
 C        5.4019010000    -1.7066840000     2.1122480000 
 C        6.6331310000    -2.5285820000     2.0514930000 
 C        6.7313190000    -1.0253720000     2.0192550000 
 H        3.1586340000    -1.6346780000    -0.9818370000 
 H        3.1455710000    -0.3997630000     1.6814900000 
 H        4.4669630000     0.3247150000     0.7516210000 
 H        4.8625670000    -1.6482410000     3.0566610000 
 H        6.8145030000    -3.0520160000     1.1214720000 
 H        6.9446160000    -3.0556480000     2.9440780000 
 H        6.9835450000    -0.5748230000     1.0670920000 
 H        7.1130430000    -0.5050300000     2.8887310000 
*
