! RI PBE def2-SVP def2-SVP/J NBO PAL2
% maxcore 2000
% output
    # printlevel mini
    print[ P_Basis ] 0
    print[ P_SCFInfo ] 1
    print[ P_SCFIterInfo ] 1
    print[ P_OrbEn ] 0
    print[ P_Cartesian ] 0
end
*xyz 0 1
 O        2.3780870000     1.2094560000     0.8321270000 
 C        1.9529650000     0.9669570000    -0.2606680000 
 C        2.8356780000     0.6406870000    -1.4664630000 
 O        2.2785360000     0.4135380000    -2.5163410000 
 C        4.2870180000     0.6280680000    -1.2586770000 
 C        5.0919540000    -0.3608840000    -2.0772990000 
 C        5.1534020000     1.0725540000    -2.4196220000 
 H        0.8715610000     0.9555980000    -0.5045410000 
 H        4.6172190000     0.8539060000    -0.2538650000 
 H        4.5146900000    -1.0066010000    -2.7273600000 
 H        5.9360110000    -0.8204540000    -1.5798260000 
 H        4.6179480000     1.4001680000    -3.3020860000 
 H        6.0413320000     1.6372180000    -2.1668880000 
*
