! RI PBE def2-SVP def2-SVP/J NBO PAL2
% maxcore 2000
% output
    # printlevel mini
    print[ P_Basis ] 0
    print[ P_SCFInfo ] 1
    print[ P_SCFIterInfo ] 1
    print[ P_OrbEn ] 0
    print[ P_Cartesian ] 0
end
*xyz 0 1
 O        3.3965640000    -0.9500720000    -0.7421340000 
 C        2.5230220000     0.0870430000    -0.4228880000 
 C        1.1861450000    -0.4644140000     0.0017340000 
 O        0.9633580000    -1.6461110000     0.0265220000 
 C        3.0754830000     0.9894820000     0.6503550000 
 C        4.0425470000     2.0645360000     0.2697760000 
 C        2.6556270000     2.4290600000     0.6970390000 
 H        2.8871460000    -1.7689420000    -0.6435230000 
 H        2.3224840000     0.7121650000    -1.3132950000 
 H        0.4202000000     0.2782420000     0.2962770000 
 H        3.2485940000     0.4928470000     1.5997940000 
 H        4.2945890000     2.1579680000    -0.7796140000 
 H        4.8601480000     2.2707170000     0.9482050000 
 H        1.9704540000     2.7843260000    -0.0642780000 
 H        2.5166470000     2.8869430000     1.6678400000 
*
