! RI PBE def2-SVP def2-SVP/J NBO PAL2
% maxcore 2000
% output
    # printlevel mini
    print[ P_Basis ] 0
    print[ P_SCFInfo ] 1
    print[ P_SCFIterInfo ] 1
    print[ P_OrbEn ] 0
    print[ P_Cartesian ] 0
end
*xyz 0 1
 O        0.6637080000    -0.1442620000     0.3944250000 
 C        1.8611070000    -0.1639400000     0.4091130000 
 C        2.6599880000    -1.4162150000     0.6656230000 
 O        4.0200880000    -1.0963860000     0.6146010000 
 C        4.8403780000    -2.2168500000     0.8451830000 
 C        6.2399070000    -1.8358200000     0.7824850000 
 C        7.4027230000    -1.5484740000     0.7362030000 
 H        2.4735180000     0.7450310000     0.2336090000 
 H        2.3831880000    -2.1664290000    -0.0915510000 
 H        2.3670780000    -1.8206630000     1.6471210000 
 H        4.6403910000    -2.9983550000     0.0961990000 
 H        4.6241360000    -2.6529490000     1.8324920000 
 H        8.4337910000    -1.2869970000     0.6938180000 
*
