! RI PBE def2-SVP def2-SVP/J NBO PAL2
% maxcore 2000
% output
    # printlevel mini
    print[ P_Basis ] 0
    print[ P_SCFInfo ] 1
    print[ P_SCFIterInfo ] 1
    print[ P_OrbEn ] 0
    print[ P_Cartesian ] 0
end
*xyz 0 1
 O        0.2858790000     2.0192230000    -1.3987570000 
 C        1.5432900000     2.1026160000    -0.8199070000 
 C        2.6339600000     1.7434720000    -1.7954330000 
 O        2.3478370000     1.4919160000    -2.9417980000 
 C        4.0492260000     1.6932830000    -1.2720740000 
 C        5.0542500000     2.2079530000    -2.2496380000 
 C        5.9863270000     3.1016100000    -1.9557200000 
 H        0.4466030000     1.7974510000    -2.3295850000 
 H        1.6261170000     1.4373190000     0.0529060000 
 H        1.7540000000     3.1204970000    -0.4535780000 
 H        4.2408250000     0.6297740000    -1.0666070000 
 H        4.1202900000     2.2151770000    -0.3139700000 
 H        4.9768660000     1.8076930000    -3.2561040000 
 H        6.0799620000     3.5237360000    -0.9597140000 
 H        6.6934770000     3.4431800000    -2.7022120000 
*
