! RI PBE def2-SVP def2-SVP/J NBO PAL2
% maxcore 2000
% output
    # printlevel mini
    print[ P_Basis ] 0
    print[ P_SCFInfo ] 1
    print[ P_SCFIterInfo ] 1
    print[ P_OrbEn ] 0
    print[ P_Cartesian ] 0
end
*xyz 0 1
 O        1.4402340000    -0.8342560000     0.1491480000 
 C        2.5275640000    -0.4365020000    -0.6148960000 
 C        3.0582270000     0.8949050000    -0.1663990000 
 O        2.5384510000     1.4750090000     0.7551510000 
 C        4.2530580000     1.5074830000    -0.8792530000 
 C        4.8138950000     0.7408920000    -1.9753670000 
 C        5.2814260000     0.1107470000    -2.8826900000 
 H        1.3001360000    -0.1259270000     0.7962140000 
 H        2.2690350000    -0.3564320000    -1.6815580000 
 H        3.3510290000    -1.1646360000    -0.5625000000 
 H        5.0132790000     1.6922570000    -0.1126670000 
 H        3.9362590000     2.4968420000    -1.2264440000 
 H        5.6971000000    -0.4477930000    -3.6881370000 
*
