! RI PBE def2-SVP def2-SVP/J NBO PAL2
% maxcore 2000
% output
    # printlevel mini
    print[ P_Basis ] 0
    print[ P_SCFInfo ] 1
    print[ P_SCFIterInfo ] 1
    print[ P_OrbEn ] 0
    print[ P_Cartesian ] 0
end
*xyz 0 1
 O        2.1573230000     0.9557220000    -0.7572850000 
 C        2.1537750000     0.1843060000     0.4329450000 
 C        2.8527720000    -1.1254300000     0.1233230000 
 O        2.1804070000    -1.7882280000    -0.9265000000 
 C        4.3368720000    -0.9270030000    -0.1939860000 
 C        5.0472990000    -2.2169420000    -0.4278850000 
 C        6.1326840000    -2.6138890000     0.2221950000 
 H        1.5213900000     1.6680720000    -0.6723280000 
 H        1.1274760000    -0.0330460000     0.7516840000 
 H        2.6725670000     0.7081890000     1.2462830000 
 H        2.7621500000    -1.7735680000     1.0013530000 
 H        2.0248940000    -1.1215050000    -1.6057170000 
 H        4.8145670000    -0.3805970000     0.6261000000 
 H        4.4054280000    -0.2922450000    -1.0857510000 
 H        4.6102960000    -2.8625550000    -1.1857120000 
 H        6.5943270000    -1.9975600000     0.9883820000 
 H        6.6034850000    -3.5671220000     0.0108080000 
*
