! RI PBE def2-SVP def2-SVP/J NBO PAL2
% maxcore 2000
% output
    # printlevel mini
    print[ P_Basis ] 0
    print[ P_SCFInfo ] 1
    print[ P_SCFIterInfo ] 1
    print[ P_OrbEn ] 0
    print[ P_Cartesian ] 0
end
*xyz 0 1
 O        2.6344730000     0.5752470000    -0.6667520000 
 C        2.1842650000    -0.0466020000     0.2509820000 
 O        2.8829940000    -0.6277980000     1.2230510000 
 C        4.3018920000    -0.4934650000     1.1481050000 
 C        4.9427080000     0.7837690000     1.6981560000 
 C        6.0431120000    -0.1164900000     2.2982160000 
 C        5.0670330000    -1.3073790000     2.1858490000 
 H        1.1118140000    -0.2269510000     0.4181380000 
 H        4.6228870000    -0.6959690000     0.1246980000 
 H        4.3149740000     1.2140150000     2.4817540000 
 H        5.2183820000     1.5601360000     0.9857670000 
 H        6.4156910000     0.1355830000     3.2903880000 
 H        6.8925300000    -0.2228630000     1.6214690000 
 H        4.4702400000    -1.4132800000     3.0940530000 
 H        5.4528970000    -2.2834730000     1.8911170000 
*
