! RI PBE def2-SVP def2-SVP/J NBO PAL2
% maxcore 2000
% output
    # printlevel mini
    print[ P_Basis ] 0
    print[ P_SCFInfo ] 1
    print[ P_SCFIterInfo ] 1
    print[ P_OrbEn ] 0
    print[ P_Cartesian ] 0
end
*xyz 0 1
 O        1.1136410000     0.0518740000    -0.0996000000 
 C        2.4319170000     0.2715640000     0.0551450000 
 O        2.9493640000     0.3338640000     1.1389990000 
 C        3.1518600000     0.4238610000    -1.2469300000 
 C        4.0600760000     1.6663630000    -1.4023240000 
 C        5.1013890000     0.7740290000    -2.0997410000 
 C        4.4172860000    -0.4419820000    -1.4514300000 
 H        0.7427180000    -0.0317380000     0.7906310000 
 H        2.4554260000     0.3252680000    -2.0797610000 
 H        4.4088760000     1.9957000000    -0.4220620000 
 H        3.6503040000     2.5167160000    -1.9482810000 
 H        6.1535450000     0.9469830000    -1.8719130000 
 H        4.9723900000     0.7774300000    -3.1841750000 
 H        4.8625730000    -0.6821260000    -0.4844310000 
 H        4.3061460000    -1.3542070000    -2.0384370000 
*
