! RI PBE def2-SVP def2-SVP/J NBO PAL2
% maxcore 2000
% output
    # printlevel mini
    print[ P_Basis ] 0
    print[ P_SCFInfo ] 1
    print[ P_SCFIterInfo ] 1
    print[ P_OrbEn ] 0
    print[ P_Cartesian ] 0
end
*xyz 0 1
 O        5.3171190000    -1.8363450000    -1.0372280000 
 C        4.2273340000    -2.0120600000    -1.5006110000 
 O        3.4843150000    -1.1085920000    -2.1302420000 
 C        4.0554110000     0.2079830000    -2.2621500000 
 C        5.0185920000     0.2999000000    -3.3997010000 
 C        4.4969120000     0.3966300000    -4.8002220000 
 C        5.1126890000     1.5949050000    -4.1495290000 
 H        3.6801700000    -2.9658680000    -1.4623870000 
 H        4.5334460000     0.4752620000    -1.3175930000 
 H        3.1965910000     0.8595760000    -2.4310820000 
 H        5.9436480000    -0.2455720000    -3.2542470000 
 H        3.4219530000     0.3901390000    -4.9366270000 
 H        5.0507060000    -0.1039130000    -5.5840970000 
 H        4.4546370000     2.4020810000    -3.8490360000 
 H        6.0914970000     1.9180710000    -4.4794480000 
*
