! RI PBE def2-SVP def2-SVP/J NBO PAL2
% maxcore 2000
% output
    # printlevel mini
    print[ P_Basis ] 0
    print[ P_SCFInfo ] 1
    print[ P_SCFIterInfo ] 1
    print[ P_OrbEn ] 0
    print[ P_Cartesian ] 0
end
*xyz 0 1
 O        3.2785550000     2.9632680000     0.7663170000 
 C        2.5341360000     1.8835800000     0.4712260000 
 O        1.4398660000     1.7478110000     0.9320730000 
 C        3.1626850000     0.8952760000    -0.4951410000 
 C        4.6658880000     0.8819940000    -0.5262230000 
 C        5.3857970000     0.4523560000    -1.7618570000 
 C        5.4219300000     1.8934710000    -1.3584300000 
 H        4.1297100000     2.8867380000     0.3123000000 
 H        2.7733670000     1.1463910000    -1.4891020000 
 H        2.7571310000    -0.0873820000    -0.2471180000 
 H        5.1373670000     0.6011310000     0.4109290000 
 H        4.7849290000     0.1880350000    -2.6236910000 
 H        6.2907880000    -0.1304880000    -1.6496530000 
 H        4.8477280000     2.5917730000    -1.9578030000 
 H        6.3524030000     2.2913340000    -0.9722270000 
*
