! RI PBE def2-SVP def2-SVP/J NBO PAL2
% maxcore 2000
% output
    # printlevel mini
    print[ P_Basis ] 0
    print[ P_SCFInfo ] 1
    print[ P_SCFIterInfo ] 1
    print[ P_OrbEn ] 0
    print[ P_Cartesian ] 0
end
*xyz 0 1
 O        2.6194080000     0.9105140000    -0.5740760000 
 C        2.1447370000    -0.0332020000    -0.0255280000 
 O        2.8320960000    -1.0391110000     0.5591930000 
 C        4.1976400000    -0.9836240000     0.5269560000 
 C        4.8995310000    -1.9618740000     1.0956070000 
 C        6.3119510000    -1.9775690000     1.1047480000 
 C        7.5138720000    -2.0240800000     1.1317970000 
 H        1.0724880000    -0.2348200000     0.0916630000 
 H        4.6241000000    -0.1238930000     0.0272130000 
 H        4.3752860000    -2.7842040000     1.5736090000 
 H        8.5774010000    -2.0572980000     1.1511070000 
*
