! RI PBE def2-SVP def2-SVP/J NBO PAL2
% maxcore 2000
% output
    # printlevel mini
    print[ P_Basis ] 0
    print[ P_SCFInfo ] 1
    print[ P_SCFIterInfo ] 1
    print[ P_OrbEn ] 0
    print[ P_Cartesian ] 0
end
*xyz 0 1
 O        2.8201250000     2.4787860000     1.6043230000 
 C        2.2523360000     2.0349060000     0.6489980000 
 O        2.8221210000     1.4339330000    -0.3931930000 
 C        4.2466780000     1.3138280000    -0.3558580000 
 C        4.9419340000     2.5908030000    -0.8060490000 
 C        4.6434970000     2.9635820000    -2.1780810000 
 C        4.3950630000     3.2608180000    -3.3136690000 
 H        1.1634370000     2.0583720000     0.4995800000 
 H        4.4766120000     0.4891330000    -1.0291240000 
 H        4.5603520000     1.0657000000     0.6593190000 
 H        6.0211380000     2.4369020000    -0.6965390000 
 H        4.6733200000     3.4048480000    -0.1270060000 
 H        4.1742900000     3.5287890000    -4.3197000000 
*
