! RI PBE def2-SVP def2-SVP/J NBO PAL2
% maxcore 2000
% output
    # printlevel mini
    print[ P_Basis ] 0
    print[ P_SCFInfo ] 1
    print[ P_SCFIterInfo ] 1
    print[ P_OrbEn ] 0
    print[ P_Cartesian ] 0
end
*xyz 0 1
 O        2.8650410000     0.3224160000    -1.3436160000 
 C        2.2369630000    -0.0528390000    -0.2117340000 
 O        1.0974310000     0.2578640000    -0.0167970000 
 C        3.0136400000    -0.8404940000     0.7732910000 
 C        4.3464680000    -0.8166990000     0.8875560000 
 C        5.0690370000    -1.5240800000     1.8745160000 
 C        5.7126160000    -2.1150750000     2.7009720000 
 H        3.7154750000    -0.1233610000    -1.4170660000 
 H        2.4073180000    -1.3965660000     1.4779290000 
 H        4.9490510000    -0.2045260000     0.2179260000 
 H        6.2738690000    -2.6419590000     3.4367230000 
*
