! RI PBE def2-SVP def2-SVP/J NBO PAL2
% maxcore 2000
% output
    # printlevel mini
    print[ P_Basis ] 0
    print[ P_SCFInfo ] 1
    print[ P_SCFIterInfo ] 1
    print[ P_OrbEn ] 0
    print[ P_Cartesian ] 0
end
*xyz 0 1
 O        2.8991810000     0.2727630000     0.9285450000 
 C        2.0518130000     0.0165350000    -0.0838600000 
 O        0.8593890000     0.1056440000     0.0409580000 
 C        2.7625610000    -0.3796520000    -1.3349920000 
 C        2.0013160000    -0.7585660000    -2.3631410000 
 C        4.2292270000    -0.3585670000    -1.3640060000 
 C        4.9519730000    -0.0348020000    -2.4311970000 
 H        2.3486940000     0.5134370000     1.6866280000 
 H        0.9220830000    -0.7302430000    -2.2781850000 
 H        2.4425460000    -1.1120530000    -3.2869160000 
 H        4.7325480000    -0.6081540000    -0.4355570000 
 H        4.4887590000     0.2812690000    -3.3600070000 
 H        6.0345080000    -0.0600190000    -2.4022800000 
*
