! RI PBE def2-SVP def2-SVP/J NBO PAL2
% maxcore 2000
% output
    # printlevel mini
    print[ P_Basis ] 0
    print[ P_SCFInfo ] 1
    print[ P_SCFIterInfo ] 1
    print[ P_OrbEn ] 0
    print[ P_Cartesian ] 0
end
*xyz 0 1
 O        1.0147530000     0.1393010000     0.1070350000 
 C        2.3538720000     0.0995110000     0.0007810000 
 O        2.9169160000    -0.2699770000    -0.9915590000 
 C        3.0455170000     0.5610800000     1.2412710000 
 C        2.3582100000     0.9612080000     2.3161220000 
 C        4.4672030000     0.5476440000     1.2057480000 
 C        5.6678660000     0.5385350000     1.1817530000 
 H        0.6695280000    -0.1756530000    -0.7392660000 
 H        1.2768030000     0.9598020000     2.3118880000 
 H        2.8725710000     1.2933850000     3.2088860000 
 H        6.7318210000     0.5276930000     1.1530320000 
*
