! RI PBE def2-SVP def2-SVP/J NBO PAL2
% maxcore 2000
% output
    # printlevel mini
    print[ P_Basis ] 0
    print[ P_SCFInfo ] 1
    print[ P_SCFIterInfo ] 1
    print[ P_OrbEn ] 0
    print[ P_Cartesian ] 0
end
*xyz 0 1
 O        0.9285780000     0.3003300000     0.6110920000 
 C        2.2459110000     0.1258030000     0.3993510000 
 O        2.6713630000    -0.6662030000    -0.3963210000 
 C        3.0682540000     1.0341190000     1.2668120000 
 C        4.5652820000     0.8140710000     1.1105200000 
 C        5.3607370000     1.7858620000     1.9172670000 
 C        6.2218600000     1.4586970000     2.8701600000 
 H        0.4706320000    -0.3107360000     0.0169610000 
 H        2.7506910000     0.8909130000     2.3042060000 
 H        2.7896090000     2.0640920000     1.0175290000 
 H        4.8213410000     0.9118020000     0.0501140000 
 H        4.8206510000    -0.2097650000     1.3943340000 
 H        5.2038890000     2.8396760000     1.6892720000 
 H        6.4096790000     0.4213790000     3.1304590000 
 H        6.7743320000     2.2117710000     3.4199240000 
*
