! RI PBE def2-SVP def2-SVP/J NBO PAL2
% maxcore 2000
% output
    # printlevel mini
    print[ P_Basis ] 0
    print[ P_SCFInfo ] 1
    print[ P_SCFIterInfo ] 1
    print[ P_OrbEn ] 0
    print[ P_Cartesian ] 0
end
*xyz 0 1
 C       -1.0066810000    -0.0059100000    -1.0769060000 
 C       -0.6043830000     0.9927230000     0.0182230000 
 C       -1.0538620000    -0.0579700000     1.0441040000 
 C       -0.6205970000    -1.0832850000    -0.0330930000 
 C        0.8733870000    -1.0854810000     0.0000870000 
 N        1.5509990000    -0.0082770000     0.0415990000 
 O        0.8133340000     1.1543790000     0.0537270000 
 H       -0.4624790000     0.0205040000    -2.0209600000 
 H       -2.0827330000     0.0224040000    -1.2486000000 
 H       -1.0062660000     2.0045260000     0.0341180000 
 H       -2.1365120000    -0.0369350000     1.1689910000 
 H       -0.5521810000    -0.0784730000     2.0115690000 
 H       -1.0620770000    -2.0775250000    -0.0673170000 
 H        1.4585520000    -1.9999810000    -0.0093430000 
*
