! RI PBE def2-SVP def2-SVP/J NBO PAL2
% maxcore 2000
% output
    # printlevel mini
    print[ P_Basis ] 0
    print[ P_SCFInfo ] 1
    print[ P_SCFIterInfo ] 1
    print[ P_OrbEn ] 0
    print[ P_Cartesian ] 0
end
*xyz 0 1
 C       -0.9823300000     0.1906250000     1.0248930000 
 C       -1.2480430000    -0.1554740000    -0.4485460000 
 N       -0.6168240000    -1.4802470000    -0.1372370000 
 C        0.2785840000    -0.6317760000     0.7163900000 
 C        1.0072260000     0.2392290000    -0.3287410000 
 O        0.5619830000     1.5898980000    -0.4266680000 
 C       -0.1138550000     0.5890650000    -1.1841550000 
 H       -1.6535280000    -0.3594250000     1.6795730000 
 H       -0.8730050000     1.2328840000     1.3077580000 
 H       -2.2414120000    -0.1583330000    -0.8945390000 
 H       -0.1278640000    -1.8775880000    -0.9404680000 
 H        0.8722500000    -1.1297740000     1.4814120000 
 H        2.0196780000     0.0377710000    -0.6605320000 
 H       -0.0803610000     0.6931360000    -2.2629400000 
*
