! RI PBE def2-SVP def2-SVP/J NBO PAL2
% maxcore 2000
% output
    # printlevel mini
    print[ P_Basis ] 0
    print[ P_SCFInfo ] 1
    print[ P_SCFIterInfo ] 1
    print[ P_OrbEn ] 0
    print[ P_Cartesian ] 0
end
*xyz 0 1
 C        2.0699310000    -0.1317320000    -0.1265620000 
 C        0.7375130000    -0.8301480000     0.0842440000 
 N       -0.3873690000    -1.2925040000    -0.6660140000 
 C       -1.4200330000    -0.4445020000    -0.2291990000 
 N       -1.3728770000     0.6966590000     0.3679140000 
 O       -0.1097610000     1.3088000000     0.6285280000 
 C        0.7777090000     0.6200610000    -0.1924850000 
 H        2.6178350000    -0.1406070000    -1.0617600000 
 H        2.6886310000    -0.1718250000     0.7615890000 
 H        0.6242670000    -1.0045930000     1.1537650000 
 H       -0.6277420000    -2.2746110000    -0.6543390000 
 H       -2.4352140000    -0.7935610000    -0.3947620000 
 H        0.5484090000     0.8334520000    -1.2351100000 
*
