! RI PBE def2-SVP def2-SVP/J NBO PAL2
% maxcore 2000
% output
    # printlevel mini
    print[ P_Basis ] 0
    print[ P_SCFInfo ] 1
    print[ P_SCFIterInfo ] 1
    print[ P_OrbEn ] 0
    print[ P_Cartesian ] 0
end
*xyz 0 1
 C        2.0678730000    -0.1334120000    -0.0724710000 
 C        0.7004220000    -0.7912920000     0.0397590000 
 N       -0.3844890000    -1.2535510000    -0.7669440000 
 N       -1.4804070000    -0.4686150000    -0.3537120000 
 C       -1.3080850000     0.6669700000     0.2027800000 
 O       -0.1400200000     1.3734360000     0.4595950000 
 C        0.8076460000     0.6431850000    -0.2777420000 
 H        2.6929360000    -0.1829960000    -0.9566980000 
 H        2.6077390000    -0.1558840000     0.8661840000 
 H        0.4972810000    -0.9194080000     1.1055800000 
 H       -0.6590170000    -2.2200580000    -0.6471830000 
 H       -2.1850870000     1.2253360000     0.5072160000 
 H        0.6656270000     0.8344680000    -1.3373720000 
*
