! RI PBE def2-SVP def2-SVP/J NBO PAL2
% maxcore 2000
% output
    # printlevel mini
    print[ P_Basis ] 0
    print[ P_SCFInfo ] 1
    print[ P_SCFIterInfo ] 1
    print[ P_OrbEn ] 0
    print[ P_Cartesian ] 0
end
*xyz 0 1
 C       -0.8097370000     0.0002040000    -1.3156100000 
 C       -0.6012760000     0.9649800000    -0.1450710000 
 O       -1.3188490000    -0.0004920000     0.6894120000 
 C       -0.6010200000    -0.9652490000    -0.1456750000 
 C        0.8481790000    -0.7404020000     0.3212070000 
 N        1.7774090000     0.0002990000    -0.5114470000 
 C        0.8479800000     0.7402250000     0.3216730000 
 H       -0.1549660000     0.0005640000    -2.1884520000 
 H       -1.8519040000     0.0001630000    -1.6262590000 
 H       -1.0114370000     1.9724180000    -0.1110690000 
 H       -1.0109110000    -1.9728180000    -0.1123040000 
 H        1.2671330000    -1.3528000000     1.1096230000 
 H        1.5277260000     0.0005790000    -1.4924100000 
 H        1.2667720000     1.3522400000     1.1104730000 
*
