! RI PBE def2-SVP def2-SVP/J NBO PAL2
% maxcore 2000
% output
    # printlevel mini
    print[ P_Basis ] 0
    print[ P_SCFInfo ] 1
    print[ P_SCFIterInfo ] 1
    print[ P_OrbEn ] 0
    print[ P_Cartesian ] 0
end
*xyz 0 1
 C       -1.6367880000     0.6482000000     0.5815130000 
 C       -1.0666920000    -0.3513170000    -0.3427470000 
 C        0.0489430000    -1.1620080000     0.2179900000 
 O        1.2196620000    -1.1201380000    -0.5887790000 
 C        1.1367820000    -0.2422640000     0.5295260000 
 C        0.7146320000     1.1539080000     0.1395580000 
 N       -0.6487980000     1.0536970000    -0.4072540000 
 H       -1.3297600000     0.5981680000     1.6242700000 
 H       -2.6378830000     1.0295040000     0.4145620000 
 H       -1.6358700000    -0.7317320000    -1.1845850000 
 H       -0.1283570000    -2.0910890000     0.7520290000 
 H        1.8566530000    -0.4221490000     1.3220250000 
 H        1.3749260000     1.5537290000    -0.6346530000 
 H        0.7356510000     1.8377810000     0.9930450000 
*
