! RI PBE def2-SVP def2-SVP/J NBO PAL2
% maxcore 2000
% output
    # printlevel mini
    print[ P_Basis ] 0
    print[ P_SCFInfo ] 1
    print[ P_SCFIterInfo ] 1
    print[ P_OrbEn ] 0
    print[ P_Cartesian ] 0
end
*xyz 0 1
 C        2.0386650000    -0.1801890000    -0.1361890000 
 C        0.6795180000    -0.7735890000     0.1372640000 
 O       -0.4343150000    -1.3280380000    -0.5313780000 
 C       -1.4120760000    -0.4275130000    -0.1749130000 
 N       -1.3574280000     0.7309520000     0.3782980000 
 O       -0.1140350000     1.3662580000     0.6141920000 
 C        0.7681900000     0.6403820000    -0.1920980000 
 H        2.5433250000    -0.2292970000    -1.0935860000 
 H        2.6937650000    -0.2331870000     0.7252640000 
 H        0.5739850000    -0.9406310000     1.2062850000 
 H       -2.4114970000    -0.8025330000    -0.3631970000 
 H        0.5335020000     0.8255840000    -1.2402500000 
*
