! RI PBE def2-SVP def2-SVP/J NBO PAL2
% maxcore 2000
% output
    # printlevel mini
    print[ P_Basis ] 0
    print[ P_SCFInfo ] 1
    print[ P_SCFIterInfo ] 1
    print[ P_OrbEn ] 0
    print[ P_Cartesian ] 0
end
*xyz 0 1
 C       -2.5662590000     0.3864520000     0.6351510000 
 C       -2.4233640000     0.3821410000    -0.8877770000 
 C       -1.2487580000     0.2438420000     0.0031320000 
 O       -0.5433960000    -0.9784110000     0.0570820000 
 C        0.7341870000    -0.5981080000    -0.1163950000 
 N        0.9662570000     0.6463250000    -0.1178150000 
 O       -0.2802410000     1.2544530000     0.1042880000 
 H       -2.9966560000    -0.4894470000     1.1041640000 
 H       -2.7821090000     1.3303180000     1.1201130000 
 H       -2.5436970000     1.3258700000    -1.4050140000 
 H       -2.7639550000    -0.4971500000    -1.4204170000 
 H        1.4891910000    -1.3612750000    -0.2260020000 
*
