! RI PBE def2-SVP def2-SVP/J NBO PAL2
% maxcore 2000
% output
    # printlevel mini
    print[ P_Basis ] 0
    print[ P_SCFInfo ] 1
    print[ P_SCFIterInfo ] 1
    print[ P_OrbEn ] 0
    print[ P_Cartesian ] 0
end
*xyz 0 1
 C        1.8765650000     0.0587760000    -0.7469520000 
 O        1.6847950000    -0.1135250000     0.6493590000 
 C        0.5374510000     0.0214800000    -0.1756170000 
 C       -0.3464990000     1.2373640000     0.0485140000 
 C       -1.7527200000     0.6954560000    -0.1829760000 
 N       -1.6305620000    -0.6857040000     0.2608340000 
 C       -0.3896800000    -1.1713750000    -0.3198440000 
 H        2.2643190000    -0.8115110000    -1.2739670000 
 H        2.3078150000     1.0122690000    -1.0452680000 
 H       -0.0971950000     2.0749520000    -0.6041710000 
 H       -0.2252680000     1.5582670000     1.0854520000 
 H       -2.0164180000     0.7808580000    -1.2515480000 
 H       -2.5134250000     1.2250550000     0.3941830000 
 H       -2.4285650000    -1.2499870000     0.0027060000 
 H       -0.4855730000    -1.4289010000    -1.3889590000 
 H        0.0003510000    -2.0412630000     0.2126620000 
*
