! RI PBE def2-SVP def2-SVP/J NBO PAL2
% maxcore 2000
% output
    # printlevel mini
    print[ P_Basis ] 0
    print[ P_SCFInfo ] 1
    print[ P_SCFIterInfo ] 1
    print[ P_OrbEn ] 0
    print[ P_Cartesian ] 0
end
*xyz 0 1
 C       -1.4908720000     0.7768320000     0.1464350000 
 C       -1.3924970000    -0.7228140000    -0.0817020000 
 C        0.0059200000    -1.2426630000     0.1737960000 
 N        1.0453890000    -1.0484400000    -0.8381790000 
 C        1.1081320000    -0.2794380000     0.3936510000 
 C        0.7866320000     1.1898030000     0.3524820000 
 O       -0.3779940000     1.4612430000    -0.3898810000 
 H       -1.5591970000     0.9899760000     1.2241210000 
 H       -2.3766250000     1.1948350000    -0.3355040000 
 H       -1.6901250000    -0.9704460000    -1.1065250000 
 H       -2.1006040000    -1.2318830000     0.5786040000 
 H        0.0652210000    -2.2124320000     0.6588680000 
 H        0.6779280000    -0.4526460000    -1.5766490000 
 H        1.9280750000    -0.5452760000     1.0561990000 
 H        1.5956280000     1.7474200000    -0.1280090000 
 H        0.6774770000     1.5683280000     1.3811820000 
*
