! RI PBE def2-SVP def2-SVP/J NBO PAL2
% maxcore 2000
% output
    # printlevel mini
    print[ P_Basis ] 0
    print[ P_SCFInfo ] 1
    print[ P_SCFIterInfo ] 1
    print[ P_OrbEn ] 0
    print[ P_Cartesian ] 0
end
*xyz 0 1
 C       -1.7036260000     0.6540720000     0.3508930000 
 N       -1.7577180000    -0.7246960000    -0.2682990000 
 C       -0.2746930000    -0.7729020000     0.0107300000 
 C        1.0375540000    -1.1411050000    -0.6366230000 
 C        1.8881540000     0.0203260000     0.0105270000 
 O        1.0053670000     1.0750920000     0.4832380000 
 C       -0.2235060000     0.7003800000    -0.0824790000 
 H       -1.8484830000     0.5664650000     1.4291820000 
 H       -2.3947090000     1.3860660000    -0.0681520000 
 H       -1.9068220000    -0.6067500000    -1.2684180000 
 H       -0.2141660000    -1.0518550000     1.0696590000 
 H        1.0088440000    -1.0388480000    -1.7237330000 
 H        1.4478320000    -2.1197660000    -0.3839590000 
 H        2.5863680000     0.4420740000    -0.7172460000 
 H        2.4562120000    -0.3378330000     0.8717790000 
 H       -0.2427070000     0.9942820000    -1.1459900000 
*
