! RI PBE def2-SVP def2-SVP/J NBO PAL2
% maxcore 2000
% output
    # printlevel mini
    print[ P_Basis ] 0
    print[ P_SCFInfo ] 1
    print[ P_SCFIterInfo ] 1
    print[ P_OrbEn ] 0
    print[ P_Cartesian ] 0
end
*xyz 0 1
 C        1.3306630000    -0.8074540000     0.1421490000 
 C        2.5601830000     0.1690350000    -0.0174370000 
 C        3.2238920000    -0.6593300000     1.0582450000 
 N        4.2340920000    -0.9103800000     1.8299900000 
 O        3.7958740000    -2.0251430000     2.5440620000 
 C        2.5472750000    -2.3832330000     2.1630870000 
 C        2.1368010000    -1.5291780000     1.2048990000 
 H        1.1022300000    -1.3949820000    -0.7480950000 
 H        0.4167420000    -0.3285330000     0.4961060000 
 H        2.3606500000     1.2067400000     0.2526150000 
 H        3.0469210000     0.1390730000    -0.9930190000 
 H        2.1478870000    -3.2422240000     2.6793200000 
*
