! RI PBE def2-SVP def2-SVP/J NBO PAL2
% maxcore 2000
% output
    # printlevel mini
    print[ P_Basis ] 0
    print[ P_SCFInfo ] 1
    print[ P_SCFIterInfo ] 1
    print[ P_OrbEn ] 0
    print[ P_Cartesian ] 0
end
*xyz 0 1
 C        1.4837260000     0.4521360000    -0.5516720000 
 C        2.5637980000     0.0348460000     0.5294030000 
 C        3.1014460000     1.4448110000     0.3965300000 
 N        3.8936310000     2.4318490000     0.6523560000 
 O        3.4114330000     3.4307980000    -0.1672030000 
 N        2.3234540000     3.0385280000    -0.9185560000 
 C        2.1514790000     1.8118510000    -0.5539700000 
 H        0.4540150000     0.4445370000    -0.1940950000 
 H        1.5452590000    -0.0941300000    -1.4929440000 
 H        3.2476650000    -0.7521670000     0.2114480000 
 H        2.1558960000    -0.2126620000     1.5095050000 
*
