! RI PBE def2-SVP def2-SVP/J NBO PAL2
% maxcore 2000
% output
    # printlevel mini
    print[ P_Basis ] 0
    print[ P_SCFInfo ] 1
    print[ P_SCFIterInfo ] 1
    print[ P_OrbEn ] 0
    print[ P_Cartesian ] 0
end
*xyz 0 1
 C       -1.5157610000     0.7799690000     0.1218040000 
 C       -1.3668830000    -0.7239320000    -0.1157440000 
 C        0.0339130000    -1.2087790000     0.1609720000 
 O        1.0070880000    -0.9290490000    -0.8433280000 
 C        1.1198590000    -0.2565650000     0.4002460000 
 C        0.8299300000     1.2217730000     0.3676490000 
 N       -0.3879540000     1.5724090000    -0.3327660000 
 H       -1.6275090000     0.9678550000     1.1960460000 
 H       -2.4266520000     1.1510370000    -0.3551280000 
 H       -1.6130030000    -0.9742080000    -1.1534520000 
 H       -2.0720720000    -1.2752370000     0.5143020000 
 H        0.1267600000    -2.2102220000     0.5774650000 
 H        1.9692000000    -0.5670460000     1.0088590000 
 H        1.6694670000     1.7498530000    -0.0948170000 
 H        0.7608690000     1.5815520000     1.4022890000 
 H       -0.2506720000     1.4332090000    -1.3271970000 
*
