! RI PBE def2-SVP def2-SVP/J NBO PAL2
% maxcore 2000
% output
    # printlevel mini
    print[ P_Basis ] 0
    print[ P_SCFInfo ] 1
    print[ P_SCFIterInfo ] 1
    print[ P_OrbEn ] 0
    print[ P_Cartesian ] 0
end
*xyz 0 1
 C       -1.3606330000     0.6260450000     0.1114410000 
 C       -1.4961760000    -0.8534680000    -0.1793460000 
 C       -0.2913140000    -1.6236010000     0.2129510000 
 C        0.9234980000    -1.1073830000     0.4231970000 
 C        1.3982160000     0.2549760000     0.2213870000 
 N        0.8921580000     1.3090220000    -0.2992730000 
 O       -0.4171910000     1.3017720000    -0.7038910000 
 H       -1.0992360000     0.7845800000     1.1635010000 
 H       -2.3038180000     1.1376160000    -0.0905670000 
 H       -1.7173600000    -0.9961810000    -1.2431300000 
 H       -2.3696790000    -1.2418400000     0.3599880000 
 H       -0.4194500000    -2.6896630000     0.3795630000 
 H        1.7058210000    -1.7850290000     0.7517210000 
 H        2.4379540000     0.4234630000     0.4935580000 
*
