! RI PBE def2-SVP def2-SVP/J NBO PAL2
% maxcore 2000
% output
    # printlevel mini
    print[ P_Basis ] 0
    print[ P_SCFInfo ] 1
    print[ P_SCFIterInfo ] 1
    print[ P_OrbEn ] 0
    print[ P_Cartesian ] 0
end
*xyz 0 1
 C        1.7263680000    -0.1068090000    -0.0293590000 
 C        0.8592490000    -1.2172020000     0.5480630000 
 C       -0.3956460000    -1.4700450000    -0.2764730000 
 C       -1.4484260000    -0.4030740000    -0.1592590000 
 N       -1.3915150000     0.8310850000     0.1392470000 
 O       -0.1557730000     1.4303360000     0.3146650000 
 C        0.8768850000     1.0231960000    -0.5747940000 
 H        2.3516560000    -0.4886040000    -0.8446860000 
 H        2.4060000000     0.2714130000     0.7388150000 
 H        0.5572280000    -0.9508760000     1.5644310000 
 H        1.4357710000    -2.1427910000     0.6269920000 
 H       -0.8693210000    -2.4008250000     0.0501720000 
 H       -0.1448460000    -1.6307730000    -1.3331560000 
 H       -2.4791250000    -0.7288760000    -0.2920860000 
 H        1.4787260000     1.9199700000    -0.7430330000 
 H        0.4193960000     0.7488870000    -1.5318290000 
*
