! RI PBE def2-SVP def2-SVP/J NBO PAL2
% maxcore 2000
% output
    # printlevel mini
    print[ P_Basis ] 0
    print[ P_SCFInfo ] 1
    print[ P_SCFIterInfo ] 1
    print[ P_OrbEn ] 0
    print[ P_Cartesian ] 0
end
*xyz 0 1
 C        0.9191710000    -1.0885570000     0.2835520000 
 C       -0.5183040000    -1.5757020000     0.0775360000 
 C       -1.4570570000    -0.5507620000    -0.4802410000 
 N       -1.4093790000     0.7134570000    -0.4259510000 
 O       -0.3359950000     1.1716410000     0.3816260000 
 C        0.8671870000     1.1626550000    -0.3187070000 
 O        1.2673590000    -0.1289290000    -0.6888590000 
 H        1.6115650000    -1.9229420000     0.1570670000 
 H        1.0512250000    -0.6873330000     1.2932150000 
 H       -0.9332230000    -1.9707060000     1.0132820000 
 H       -0.5253070000    -2.4124580000    -0.6276100000 
 H       -2.3122550000    -0.9154640000    -1.0485780000 
 H        1.5795360000     1.6160200000     0.3814510000 
 H        0.8092770000     1.7401780000    -1.2466850000 
*
