! RI PBE def2-SVP def2-SVP/J NBO PAL2
% maxcore 2000
% output
    # printlevel mini
    print[ P_Basis ] 0
    print[ P_SCFInfo ] 1
    print[ P_SCFIterInfo ] 1
    print[ P_OrbEn ] 0
    print[ P_Cartesian ] 0
end
*xyz 0 1
 C       -0.1433200000    -1.2740840000    -0.4574630000 
 N        1.1401560000    -1.0098930000    -1.1067030000 
 C        0.7945500000    -0.2866740000     0.1064890000 
 C        1.6145120000    -0.5681970000     1.3299620000 
 C        0.9584580000    -0.2635290000     2.6841950000 
 C        1.2524070000    -1.7331080000     2.9868520000 
 O        1.7265990000    -1.9622540000     1.6532240000 
 H       -0.2126490000    -2.2513830000     0.0055610000 
 H       -1.0521040000    -0.9071940000    -0.9241580000 
 H        1.0149780000    -0.4219660000    -1.9227800000 
 H        0.5228620000     0.7643740000     0.0120770000 
 H        2.6112990000    -0.1235590000     1.2084400000 
 H       -0.1024620000    -0.0222770000     2.6107940000 
 H        1.4591160000     0.4728860000     3.3107550000 
 H        0.3931620000    -2.3651060000     3.2304490000 
 H        2.0413270000    -1.9025350000     3.7276940000 
*
