! RI PBE def2-SVP def2-SVP/J NBO PAL2
% maxcore 2000
% output
    # printlevel mini
    print[ P_Basis ] 0
    print[ P_SCFInfo ] 1
    print[ P_SCFIterInfo ] 1
    print[ P_OrbEn ] 0
    print[ P_Cartesian ] 0
end
*xyz 0 1
 C        0.2858590000    -1.7574860000    -1.0847030000 
 C        0.5995530000    -0.3137640000    -1.0380600000 
 N        0.1766310000    -1.0172060000     0.1579620000 
 C        1.2046170000    -1.2719750000     1.1300830000 
 C        1.2904860000    -0.2770640000     2.2912170000 
 O        1.1493470000    -1.3286540000     3.2561360000 
 C        0.8547500000    -2.2824580000     2.2264270000 
 H        1.1227190000    -2.4433540000    -1.1934840000 
 H       -0.6495420000    -2.1018890000    -1.5110260000 
 H       -0.1031050000     0.4129880000    -1.4297760000 
 H        1.6468230000    -0.0312660000    -1.1155550000 
 H        2.1814100000    -1.4691130000     0.6626600000 
 H        0.4467430000     0.4210550000     2.3167610000 
 H        2.2305130000     0.2681230000     2.4143600000 
 H       -0.2027450000    -2.5680980000     2.2201880000 
 H        1.4824420000    -3.1747390000     2.3031290000 
*
