! RI PBE def2-SVP def2-SVP/J NBO PAL2
% maxcore 2000
% output
    # printlevel mini
    print[ P_Basis ] 0
    print[ P_SCFInfo ] 1
    print[ P_SCFIterInfo ] 1
    print[ P_OrbEn ] 0
    print[ P_Cartesian ] 0
end
*xyz 0 1
 C        1.1299910000     0.2395370000     0.7519830000 
 C        0.8034340000     1.7047030000     0.7746940000 
 C        0.7990800000     2.5142280000    -0.4387960000 
 O       -0.4139230000     2.0782290000     0.1525500000 
 N        2.5037700000     0.0237350000     1.1513160000 
 C        3.0814500000    -1.2464170000     0.7719780000 
 C        3.4828790000     0.0004960000     0.0842650000 
 H        0.9066450000    -0.1636420000    -0.2503940000 
 H        0.4817000000    -0.2803850000     1.4654820000 
 H        1.0010210000     2.2043420000     1.7217390000 
 H        1.0432680000     2.0473000000    -1.3907920000 
 H        0.9892760000     3.5828380000    -0.3773090000 
 H        2.4561270000    -1.9393140000     0.2132880000 
 H        3.7366660000    -1.7066650000     1.5035310000 
 H        3.1243540000     0.1406750000    -0.9330190000 
 H        4.4368610000     0.4670490000     0.3037940000 
*
