! RI PBE def2-SVP def2-SVP/J NBO PAL2
% maxcore 2000
% output
    # printlevel mini
    print[ P_Basis ] 0
    print[ P_SCFInfo ] 1
    print[ P_SCFIterInfo ] 1
    print[ P_OrbEn ] 0
    print[ P_Cartesian ] 0
end
*xyz 0 1
 C       -1.6880560000     0.7419020000     0.3815690000 
 C       -1.0354640000    -0.4207950000    -0.2571710000 
 C       -0.2241350000    -1.3809710000     0.5699150000 
 O        1.1320490000    -1.3827570000     0.1658420000 
 C        1.7038010000    -0.0947800000    -0.0078370000 
 C        0.7763000000     1.0311750000     0.4053880000 
 N       -0.4578870000     0.9211670000    -0.3601840000 
 H       -1.6440440000     0.8050860000     1.4671690000 
 H       -2.5706060000     1.1848090000    -0.0667520000 
 H       -1.4318670000    -0.8053910000    -1.1926440000 
 H       -0.5760210000    -2.4056080000     0.4396350000 
 H       -0.3086600000    -1.1387810000     1.6376670000 
 H        1.9594420000     0.0275050000    -1.0672200000 
 H        2.6307930000    -0.0497610000     0.5737140000 
 H        1.2534900000     1.9890100000     0.1823090000 
 H        0.6012560000     1.0011800000     1.4898890000 
*
