! RI PBE def2-SVP def2-SVP/J NBO PAL2
% maxcore 2000
% output
    # printlevel mini
    print[ P_Basis ] 0
    print[ P_SCFInfo ] 1
    print[ P_SCFIterInfo ] 1
    print[ P_OrbEn ] 0
    print[ P_Cartesian ] 0
end
*xyz 0 1
 C       -0.8203370000    -0.0425520000    -1.1597240000 
 C       -0.5724760000     1.0569530000    -0.1181460000 
 C       -1.1397460000     0.0329850000     0.8656210000 
 N       -0.6731630000    -1.0506630000    -0.0593740000 
 C        0.7602550000    -1.2257450000     0.1931050000 
 C        1.5648180000     0.0561400000    -0.0826450000 
 O        0.8074370000     1.2376430000     0.1319890000 
 H       -0.1365340000    -0.1446960000    -2.0041750000 
 H       -1.8490900000    -0.0445340000    -1.5246850000 
 H       -1.0145340000     2.0497920000    -0.2231200000 
 H       -2.2311380000     0.0298890000     0.9214500000 
 H       -0.7085670000     0.0122590000     1.8686800000 
 H        1.1429730000    -2.0311320000    -0.4418430000 
 H        0.8705460000    -1.5520650000     1.2306640000 
 H        1.9264230000     0.0499910000    -1.1182720000 
 H        2.4427210000     0.1197250000     0.5637760000 
*
