! RI PBE def2-SVP def2-SVP/J NBO PAL2
% maxcore 2000
% output
    # printlevel mini
    print[ P_Basis ] 0
    print[ P_SCFInfo ] 1
    print[ P_SCFIterInfo ] 1
    print[ P_OrbEn ] 0
    print[ P_Cartesian ] 0
end
*xyz 0 1
 C       -1.4523720000     0.7191710000     0.1237970000 
 C       -1.4860890000    -0.7818370000    -0.1052700000 
 N       -0.2928970000    -1.4542730000     0.3769950000 
 C        0.8722550000    -1.1885450000    -0.4430870000 
 C        1.6695580000     0.0265800000     0.0106130000 
 O        0.9256100000     1.1804600000     0.3196860000 
 C       -0.2311480000     1.4293140000    -0.4413290000 
 H       -1.4864490000     0.9291730000     1.1969590000 
 H       -2.3510160000     1.1573820000    -0.3258660000 
 H       -1.6413480000    -0.9683230000    -1.1851590000 
 H       -2.3496630000    -1.2024630000     0.4175940000 
 H       -0.4642510000    -2.4489940000     0.4149040000 
 H        0.5940260000    -1.0788230000    -1.5054660000 
 H        1.5550580000    -2.0424210000    -0.3929860000 
 H        2.4148490000     0.2522360000    -0.7689730000 
 H        2.2099080000    -0.2175790000     0.9289670000 
 H       -0.0792680000     1.1793940000    -1.5018380000 
 H       -0.3900740000     2.5100370000    -0.3896290000 
*
