! RI PBE def2-SVP def2-SVP/J NBO PAL2
% maxcore 2000
% output
    # printlevel mini
    print[ P_Basis ] 0
    print[ P_SCFInfo ] 1
    print[ P_SCFIterInfo ] 1
    print[ P_OrbEn ] 0
    print[ P_Cartesian ] 0
end
*xyz 0 1
 C        1.7105080000    -0.0821630000    -0.0195890000 
 C        0.7713630000    -1.1831450000     0.4598150000 
 N       -0.3666650000    -1.3428490000    -0.4329680000 
 N       -1.4484040000    -0.5142600000    -0.2031900000 
 C       -1.2935750000     0.7090040000     0.0818530000 
 O       -0.1713090000     1.4620080000     0.1830550000 
 C        0.9311390000     1.0617050000    -0.6306700000 
 H        2.3964240000    -0.4673020000    -0.7800530000 
 H        2.3169600000     0.2718770000     0.8187090000 
 H        0.4243850000    -0.9614880000     1.4788910000 
 H        1.3003900000    -2.1383780000     0.4997520000 
 H       -0.7242010000    -2.2851220000    -0.4072360000 
 H       -2.1848430000     1.2919100000     0.2894670000 
 H        1.5517610000     1.9528100000    -0.7368310000 
 H        0.5562650000     0.7854730000    -1.6196040000 
*
