! RI PBE def2-SVP def2-SVP/J NBO PAL2
% maxcore 2000
% output
    # printlevel mini
    print[ P_Basis ] 0
    print[ P_SCFInfo ] 1
    print[ P_SCFIterInfo ] 1
    print[ P_OrbEn ] 0
    print[ P_Cartesian ] 0
end
*xyz 0 1
 C       -1.6312720000     0.8062580000     0.5175940000 
 C       -1.1256970000    -0.3440170000    -0.3048220000 
 N       -0.2841540000    -1.3245460000     0.3100700000 
 C        1.0001860000    -1.3181490000    -0.3652200000 
 C        1.6972360000     0.0104920000    -0.0572910000 
 O        0.7931580000     1.0639860000     0.2396860000 
 C       -0.4458360000     0.9874390000    -0.3758310000 
 H       -1.4220840000     0.7649610000     1.5785990000 
 H       -2.5645010000     1.2741450000     0.2291590000 
 H       -1.7120670000    -0.6497330000    -1.1719070000 
 H       -0.7091710000    -2.2397730000     0.3145670000 
 H        0.8952510000    -1.4484520000    -1.4547270000 
 H        1.6199800000    -2.1390960000     0.0029130000 
 H        2.3501670000     0.2946990000    -0.8929720000 
 H        2.3162870000    -0.0878070000     0.8374260000 
 H       -0.5524930000     1.5901830000    -1.2752340000 
*
