! RI PBE def2-SVP def2-SVP/J NBO PAL2
% maxcore 2000
% output
    # printlevel mini
    print[ P_Basis ] 0
    print[ P_SCFInfo ] 1
    print[ P_SCFIterInfo ] 1
    print[ P_OrbEn ] 0
    print[ P_Cartesian ] 0
end
*xyz 0 1
 C        1.6670730000    -0.1275070000    -0.0576850000 
 C        0.7161410000    -1.1696650000     0.4918920000 
 O       -0.4141280000    -1.4251530000    -0.3234690000 
 C       -1.4313680000    -0.5434810000    -0.1789530000 
 C       -1.3513600000     0.7282810000     0.2031750000 
 C       -0.0926430000     1.5305700000     0.3941060000 
 N        0.9774730000     1.0753430000    -0.4715490000 
 H        2.1994060000    -0.5333500000    -0.9239310000 
 H        2.4174950000     0.0403360000     0.7369480000 
 H        0.3598580000    -0.8771220000     1.4864240000 
 H        1.2444660000    -2.1206270000     0.5890490000 
 H       -2.3855500000    -1.0043070000    -0.4129360000 
 H       -2.2936200000     1.2528390000     0.3151670000 
 H        0.1909690000     1.5686140000     1.4627600000 
 H       -0.3161340000     2.5633760000     0.1135730000 
 H        1.6376220000     1.8182610000    -0.6489500000 
*
