! RI PBE def2-SVP def2-SVP/J NBO PAL2
% maxcore 2000
% output
    # printlevel mini
    print[ P_Basis ] 0
    print[ P_SCFInfo ] 1
    print[ P_SCFIterInfo ] 1
    print[ P_OrbEn ] 0
    print[ P_Cartesian ] 0
end
*xyz 0 1
 C        1.6836460000    -0.1577890000    -0.0949270000 
 C        0.7725890000    -1.1428760000     0.5973580000 
 O       -0.4157520000    -1.3963230000    -0.1615720000 
 C       -1.3803190000    -0.4677550000    -0.1239310000 
 N       -1.3686050000     0.7803290000     0.1164300000 
 O       -0.1393430000     1.4008810000     0.3597840000 
 C        0.8808270000     1.0496280000    -0.5611050000 
 H        2.1812820000    -0.6222000000    -0.9511690000 
 H        2.4615660000     0.1430350000     0.6127040000 
 H        0.4823510000    -0.7756430000     1.5843110000 
 H        1.2452040000    -2.1181830000     0.7156200000 
 H       -2.3557970000    -0.8825910000    -0.3600850000 
 H        1.5150340000     1.9345720000    -0.6498390000 
 H        0.4258980000     0.8642250000    -1.5393790000 
*
