! RI PBE def2-SVP def2-SVP/J NBO PAL2
% maxcore 2000
% output
    # printlevel mini
    print[ P_Basis ] 0
    print[ P_SCFInfo ] 1
    print[ P_SCFIterInfo ] 1
    print[ P_OrbEn ] 0
    print[ P_Cartesian ] 0
end
*xyz 0 1
 C        1.7006550000    -0.1207340000    -0.0434660000 
 C        0.7180000000    -1.1380490000     0.4949150000 
 O       -0.3958140000    -1.3733650000    -0.3495970000 
 N       -1.4909100000    -0.5583400000    -0.1510960000 
 C       -1.3178670000     0.6500780000     0.1974970000 
 C       -0.0782560000     1.4949340000     0.3541440000 
 N        1.0041180000     1.0631610000    -0.4931590000 
 H        2.2482690000    -0.5441990000    -0.8905570000 
 H        2.4330620000     0.0721190000     0.7608350000 
 H        0.3470900000    -0.8451190000     1.4839090000 
 H        1.2132510000    -2.1060240000     0.6020630000 
 H       -2.2641290000     1.1639210000     0.3580160000 
 H        0.1767710000     1.5716890000     1.4285940000 
 H       -0.3625020000     2.5052400000     0.0476230000 
 H        1.6434720000     1.8210900000    -0.6812220000 
*
