! RI PBE def2-SVP def2-SVP/J NBO PAL2
% maxcore 2000
% output
    # printlevel mini
    print[ P_Basis ] 0
    print[ P_SCFInfo ] 1
    print[ P_SCFIterInfo ] 1
    print[ P_OrbEn ] 0
    print[ P_Cartesian ] 0
end
*xyz 0 1
 C        1.6589900000    -0.1083260000    -0.0593970000 
 C        0.7112960000    -1.1398700000     0.5066980000 
 O       -0.4050290000    -1.3940800000    -0.3276920000 
 N       -1.4950460000    -0.5691270000    -0.1374560000 
 C       -1.3050170000     0.6402010000     0.1987570000 
 C       -0.0504120000     1.4685250000     0.3359630000 
 O        1.0042660000     1.0627180000    -0.4842750000 
 H        2.1651180000    -0.5012400000    -0.9434710000 
 H        2.4234480000     0.1217300000     0.6996050000 
 H        0.3485710000    -0.8556590000     1.5013070000 
 H        1.2338670000    -2.0951730000     0.6071290000 
 H       -2.2405270000     1.1762540000     0.3511960000 
 H        0.2478200000     1.5408950000     1.3944660000 
 H       -0.3059540000     2.4830410000     0.0190710000 
*
