! RI PBE def2-SVP def2-SVP/J NBO PAL2
% maxcore 2000
% output
    # printlevel mini
    print[ P_Basis ] 0
    print[ P_SCFInfo ] 1
    print[ P_SCFIterInfo ] 1
    print[ P_OrbEn ] 0
    print[ P_Cartesian ] 0
end
*xyz 0 1
 C        1.1918710000     0.2777520000     0.1909070000 
 C        0.6070850000     1.5812440000     0.6585430000 
 C       -0.8518030000     1.7439530000     0.7835240000 
 N       -0.0095760000     1.6862580000     1.9770730000 
 C        2.5479440000     0.0099600000     0.7797200000 
 C        2.7407150000    -0.8544150000     1.9389440000 
 O        3.0562110000    -1.3052990000     0.6315480000 
 H        1.2804010000     0.2900170000    -0.9018530000 
 H        0.5212620000    -0.5508010000     0.4444060000 
 H        1.1887690000     2.4622160000     0.3954340000 
 H       -1.4726730000     0.8859120000     0.5428940000 
 H       -1.3136930000     2.7067190000     0.5941390000 
 H       -0.0731560000     0.7670170000     2.4032180000 
 H        3.2913990000     0.7894950000     0.6103800000 
 H        1.8765770000    -1.3324880000     2.3962360000 
 H        3.5912660000    -0.6994500000     2.5978960000 
*
