! RI PBE def2-SVP def2-SVP/J NBO PAL2
% maxcore 2000
% output
    # printlevel mini
    print[ P_Basis ] 0
    print[ P_SCFInfo ] 1
    print[ P_SCFIterInfo ] 1
    print[ P_OrbEn ] 0
    print[ P_Cartesian ] 0
end
*xyz 0 1
 C        1.5576790000    -0.1020200000     0.2372170000 
 N        0.9067210000    -1.4277760000     0.1930530000 
 C       -0.2223950000    -0.8850460000    -0.5912620000 
 C       -1.3922320000    -0.2990280000     0.1451180000 
 C       -1.2796480000     1.0268190000     0.1424910000 
 O       -0.1906510000     1.5273210000    -0.4945420000 
 C        0.6027250000     0.3964740000    -0.8544290000 
 H        2.6233930000    -0.1247180000    -0.0043070000 
 H        1.4116810000     0.4619080000     1.1646130000 
 H        0.6495300000    -1.8054480000     1.0971540000 
 H       -0.5132900000    -1.5327660000    -1.4239580000 
 H       -2.2179890000    -0.8547830000     0.5638460000 
 H       -1.9413980000     1.7746630000     0.5591920000 
 H        1.0271640000     0.5694800000    -1.8410050000 
*
