! RI PBE def2-SVP def2-SVP/J NBO PAL2
% maxcore 2000
% output
    # printlevel mini
    print[ P_Basis ] 0
    print[ P_SCFInfo ] 1
    print[ P_SCFIterInfo ] 1
    print[ P_OrbEn ] 0
    print[ P_Cartesian ] 0
end
*xyz 0 1
 C        1.6062020000    -0.1391480000     0.2204590000 
 N        0.8921430000    -1.4349780000     0.1727500000 
 C       -0.2277170000    -0.8265080000    -0.5625650000 
 C       -1.3135040000    -0.1778990000     0.2435160000 
 N       -1.2328320000     1.0875060000     0.3314900000 
 O       -0.1406220000     1.5472140000    -0.3803260000 
 C        0.6223630000     0.4276000000    -0.8147990000 
 H        2.6555290000    -0.2086050000    -0.0750380000 
 H        1.5317910000     0.4049800000     1.1671520000 
 H        0.6565400000    -1.8380990000     1.0716000000 
 H       -0.6115510000    -1.4385020000    -1.3836740000 
 H       -2.1464200000    -0.6782610000     0.7226040000 
 H        1.0060690000     0.6349090000    -1.8113610000 
*
