! RI PBE def2-SVP def2-SVP/J NBO PAL2
% maxcore 2000
% output
    # printlevel mini
    print[ P_Basis ] 0
    print[ P_SCFInfo ] 1
    print[ P_SCFIterInfo ] 1
    print[ P_OrbEn ] 0
    print[ P_Cartesian ] 0
end
*xyz 0 1
 C       -1.7835200000     0.6296830000     0.2804550000 
 N       -1.7481300000    -0.7521260000    -0.3216490000 
 C       -0.2912710000    -0.7308500000     0.0325910000 
 C        1.0408840000    -1.0501200000    -0.5898640000 
 O        1.8581320000    -0.0203470000     0.0119100000 
 C        1.0669130000     1.0521420000     0.5919030000 
 C       -0.2761870000     0.7697760000    -0.0215620000 
 H       -2.0179660000     0.5488450000     1.3441780000 
 H       -2.4689950000     1.3314180000    -0.1959160000 
 H       -1.8420020000    -0.6457030000    -1.3299510000 
 H       -0.2503660000    -1.0573460000     1.0796580000 
 H        1.0386330000    -0.9473640000    -1.6823380000 
 H        1.4775370000    -2.0127280000    -0.3169750000 
 H        1.5354950000     1.9942050000     0.3014260000 
 H        1.0737900000     0.9650210000     1.6841870000 
 H       -0.2153480000     1.0488840000    -1.0817440000 
*
