! RI PBE def2-SVP def2-SVP/J NBO PAL2
% maxcore 2000
% output
    # printlevel mini
    print[ P_Basis ] 0
    print[ P_SCFInfo ] 1
    print[ P_SCFIterInfo ] 1
    print[ P_OrbEn ] 0
    print[ P_Cartesian ] 0
end
*xyz 0 1
 C        1.8068160000     0.1662950000     0.9118260000 
 N        1.9931610000     0.3431890000    -0.5747950000 
 C        2.9211250000     1.3586040000    -0.2893930000 
 N        3.7489630000     2.2394090000    -0.7547890000 
 O        4.1299000000     2.9054060000     0.4270810000 
 C        3.5113450000     2.3711410000     1.5067310000 
 C        2.7268370000     1.3609840000     1.0968370000 
 H        2.2049030000    -0.7734890000     1.2992510000 
 H        0.7680090000     0.2936230000     1.2167060000 
 H        2.2789420000    -0.4522420000    -1.1295930000 
 H        3.7671180000     2.8340800000     2.4471400000 
*
