! RI PBE def2-SVP def2-SVP/J NBO PAL2
% maxcore 2000
% output
    # printlevel mini
    print[ P_Basis ] 0
    print[ P_SCFInfo ] 1
    print[ P_SCFIterInfo ] 1
    print[ P_OrbEn ] 0
    print[ P_Cartesian ] 0
end
*xyz 0 1
 C       -0.1875350000    -0.9919770000    -0.6881120000 
 O        1.1424230000    -1.1507570000    -1.1558340000 
 C        0.9270600000    -0.3344790000    -0.0130840000 
 C        1.5246150000    -0.7835240000     1.2797140000 
 C        0.8558780000    -0.3407540000     2.5955760000 
 N        1.1694230000    -1.6639230000     3.1546400000 
 C        1.3390990000    -2.2181210000     1.8005700000 
 H       -0.6376740000    -1.8834590000    -0.2606800000 
 H       -0.8395050000    -0.4056990000    -1.3317620000 
 H        1.0537270000     0.7308220000    -0.2141280000 
 H        2.5853910000    -0.5192240000     1.2895350000 
 H       -0.2175780000    -0.1526240000     2.4533670000 
 H        1.2959580000     0.5023830000     3.1342670000 
 H        0.4408970000    -2.0874800000     3.7139400000 
 H        0.4386210000    -2.6972080000     1.3969060000 
 H        2.1811000000    -2.9039860000     1.6869840000 
*
