! RI PBE def2-SVP def2-SVP/J NBO PAL2
% maxcore 2000
% output
    # printlevel mini
    print[ P_Basis ] 0
    print[ P_SCFInfo ] 1
    print[ P_SCFIterInfo ] 1
    print[ P_OrbEn ] 0
    print[ P_Cartesian ] 0
end
*xyz 0 1
 C       -1.7895060000     0.6326440000     0.2877230000 
 O       -1.7179730000    -0.6913360000    -0.3185550000 
 C       -0.3200510000    -0.6865050000     0.0416970000 
 C        0.9560940000    -1.0565000000    -0.6693790000 
 N        1.8448310000    -0.0560020000    -0.0026160000 
 C        1.0645640000     1.0809210000     0.5884780000 
 C       -0.2908420000     0.8059980000    -0.0133640000 
 H       -2.0371120000     0.5553570000     1.3528860000 
 H       -2.5002820000     1.2783990000    -0.2290180000 
 H       -0.2443200000    -1.0396720000     1.0824470000 
 H        0.8665340000    -0.9103860000    -1.7521540000 
 H        1.3227030000    -2.0663600000    -0.4723250000 
 H        2.5473440000     0.2816050000    -0.6422610000 
 H        1.5111120000     2.0365760000     0.3067040000 
 H        1.0691660000     1.0101050000     1.6807770000 
 H       -0.2445620000     1.0724570000    -1.0751380000 
*
