! RI PBE def2-SVP def2-SVP/J NBO PAL2
% maxcore 2000
% output
    # printlevel mini
    print[ P_Basis ] 0
    print[ P_SCFInfo ] 1
    print[ P_SCFIterInfo ] 1
    print[ P_OrbEn ] 0
    print[ P_Cartesian ] 0
end
*xyz 0 1
 C        1.7255440000    -0.0175540000    -0.7572890000 
 O        1.4252250000     0.5016670000     0.5948330000 
 C        2.2094480000     1.5946750000     0.2705700000 
 C        2.7647920000     2.7953570000     0.5995780000 
 N        3.4750270000     3.1341080000    -0.5467680000 
 C        3.3636490000     2.1872130000    -1.5370610000 
 C        2.5606780000     1.2121010000    -1.0164940000 
 H        0.8040370000    -0.1222750000    -1.3322450000 
 H        2.2531430000    -0.9699760000    -0.6848630000 
 H        2.7521330000     3.4348420000     1.4651840000 
 H        4.0093730000     3.9777880000    -0.6382910000 
 H        3.8644410000     2.3213540000    -2.4823540000 
*
