! RI PBE def2-SVP def2-SVP/J NBO PAL2
% maxcore 2000
% output
    # printlevel mini
    print[ P_Basis ] 0
    print[ P_SCFInfo ] 1
    print[ P_SCFIterInfo ] 1
    print[ P_OrbEn ] 0
    print[ P_Cartesian ] 0
end
*xyz 0 1
 C        1.6313930000    -0.2943930000     0.1215270000 
 O        0.8429170000    -1.5023200000     0.0543440000 
 C       -0.1882930000    -0.8254200000    -0.6750230000 
 C       -1.3260730000    -0.3463040000     0.1724010000 
 N       -1.2546980000     0.8811540000     0.4920280000 
 O       -0.1347000000     1.4651660000    -0.0708920000 
 C        0.6235610000     0.4661890000    -0.7406430000 
 H        2.6233570000    -0.4427150000    -0.3129050000 
 H        1.7194460000     0.0929230000     1.1402720000 
 H       -0.4850830000    -1.3740480000    -1.5718880000 
 H       -2.1645610000    -0.9337980000     0.5225340000 
 H        0.9650340000     0.8657440000    -1.6932340000 
*
