! RI PBE def2-SVP def2-SVP/J NBO PAL2
% maxcore 2000
% output
    # printlevel mini
    print[ P_Basis ] 0
    print[ P_SCFInfo ] 1
    print[ P_SCFIterInfo ] 1
    print[ P_OrbEn ] 0
    print[ P_Cartesian ] 0
end
*xyz 0 1
 C        1.4483050000    -0.1462780000    -0.5795010000 
 O        1.7997780000     0.6995450000     0.5883650000 
 C        2.5775990000     1.4615070000    -0.2609140000 
 C        3.4104900000     2.4572740000    -0.6138800000 
 O        3.6233660000     2.3065680000    -1.9577580000 
 N        2.9282890000     1.2146920000    -2.4703300000 
 C        2.3269210000     0.7520820000    -1.4223260000 
 H        0.3771150000    -0.1038560000    -0.7739020000 
 H        1.7953210000    -1.1681580000    -0.4298990000 
 H        3.9195260000     3.2851140000    -0.1512360000 
*
