! RI PBE def2-SVP def2-SVP/J NBO PAL2
% maxcore 2000
% output
    # printlevel mini
    print[ P_Basis ] 0
    print[ P_SCFInfo ] 1
    print[ P_SCFIterInfo ] 1
    print[ P_OrbEn ] 0
    print[ P_Cartesian ] 0
end
*xyz 0 1
 C       -1.2013980000    -0.0006940000     1.0045910000 
 C       -0.6217500000    -1.0177220000     0.0073770000 
 C        0.8594480000    -1.1947400000     0.2850570000 
 O        1.4416600000     0.0006410000     0.7700190000 
 C        0.8582800000     1.1956230000     0.2854780000 
 C       -0.6227450000     1.0172560000     0.0077380000 
 N       -0.8279840000    -0.0001460000    -1.0485510000 
 H       -0.8106750000    -0.0006830000     2.0214150000 
 H       -2.2896850000    -0.0012250000     0.9963010000 
 H       -1.1267940000    -1.9744780000    -0.1498140000 
 H        1.3646870000    -1.5274090000    -0.6361490000 
 H        1.0334660000    -1.9517500000     1.0560190000 
 H        1.3631930000     1.5291110000    -0.6356110000 
 H        1.0315580000     1.9525310000     1.0567070000 
 H       -1.1287250000     1.9735730000    -0.1491130000 
 H       -0.1087160000     0.0003330000    -1.7693540000 
*
