! RI PBE def2-SVP def2-SVP/J NBO PAL2
% maxcore 2000
% output
    # printlevel mini
    print[ P_Basis ] 0
    print[ P_SCFInfo ] 1
    print[ P_SCFIterInfo ] 1
    print[ P_OrbEn ] 0
    print[ P_Cartesian ] 0
end
*xyz 0 1
 C        0.6830190000    -1.2108460000     0.5003770000 
 O       -0.5799580000    -1.5051850000    -0.0827520000 
 C       -1.5230940000    -0.5429410000    -0.0844190000 
 C       -1.2996240000     0.7614380000     0.0596430000 
 C        0.0801860000     1.2491090000     0.2053990000 
 N        1.0148560000     0.8803200000    -0.8854570000 
 C        1.1186470000     0.2238720000     0.4057270000 
 H        1.3950430000    -1.8744230000     0.0041320000 
 H        0.6429840000    -1.4815030000     1.5636680000 
 H       -2.5087940000    -0.9604540000    -0.2551690000 
 H       -2.1306750000     1.4518310000     0.0087140000 
 H        0.2235970000     2.2174580000     0.6731340000 
 H        1.7386660000     1.5861490000    -0.9781560000 
 H        1.9627570000     0.4625750000     1.0489490000 
*
