! RI PBE def2-SVP def2-SVP/J NBO PAL2
% maxcore 2000
% output
    # printlevel mini
    print[ P_Basis ] 0
    print[ P_SCFInfo ] 1
    print[ P_SCFIterInfo ] 1
    print[ P_OrbEn ] 0
    print[ P_Cartesian ] 0
end
*xyz 0 1
 C       -1.3021220000     0.6412690000     0.2647880000 
 O       -1.4745800000    -0.7642040000     0.1760440000 
 C       -0.3772690000    -1.4876450000     0.3765170000 
 C        0.8946910000    -1.0580870000     0.4188510000 
 C        1.4167630000     0.2645620000     0.1547820000 
 N        0.8811660000     1.3083330000    -0.3520410000 
 O       -0.4664280000     1.1792110000    -0.7033310000 
 H       -0.9271800000     0.8825570000     1.2643180000 
 H       -2.2943920000     1.0549060000     0.0958230000 
 H       -0.6127720000    -2.5341320000     0.5369760000 
 H        1.6338480000    -1.8101000000     0.6661480000 
 H        2.4672740000     0.4236290000     0.3878370000 
*
