! RI PBE def2-SVP def2-SVP/J NBO PAL2
% maxcore 2000
% output
    # printlevel mini
    print[ P_Basis ] 0
    print[ P_SCFInfo ] 1
    print[ P_SCFIterInfo ] 1
    print[ P_OrbEn ] 0
    print[ P_Cartesian ] 0
end
*xyz 0 1
 C       -0.4262590000     1.3709260000    -0.1368440000 
 O       -1.5223590000     0.5365460000    -0.4788160000 
 C       -1.1918820000    -0.8419500000    -0.5528550000 
 C       -0.2352290000    -1.2409220000     0.5335090000 
 N        0.9832000000    -0.8702490000     0.5641070000 
 N        1.4567130000    -0.1478090000    -0.4932870000 
 C        0.8407610000     0.9225390000    -0.8064010000 
 H       -0.2745890000     1.3731290000     0.9516470000 
 H       -0.7016300000     2.3788910000    -0.4474800000 
 H       -0.7426390000    -1.0734780000    -1.5287420000 
 H       -2.1327090000    -1.3862180000    -0.4697920000 
 H       -0.5732500000    -1.8492380000     1.3688050000 
 H        1.2643710000     1.4983420000    -1.6255290000 
*
