! RI PBE def2-SVP def2-SVP/J NBO PAL2
% maxcore 2000
% output
    # printlevel mini
    print[ P_Basis ] 0
    print[ P_SCFInfo ] 1
    print[ P_SCFIterInfo ] 1
    print[ P_OrbEn ] 0
    print[ P_Cartesian ] 0
end
*xyz 0 1
 C        0.8417470000    -1.0967960000     0.9166430000 
 C        1.1376530000    -0.3854510000    -0.3510140000 
 C        0.8361770000     1.0811170000    -0.4492210000 
 O       -0.2845410000     1.4585750000     0.3388130000 
 N       -1.4718940000     0.7915960000     0.0479080000 
 C       -1.3546450000    -0.4459110000    -0.2281820000 
 C       -0.1082250000    -1.2194900000    -0.2604120000 
 H        0.5028890000    -0.5139460000     1.7634850000 
 H        1.4226870000    -1.9773060000     1.1589960000 
 H        1.9449960000    -0.7498260000    -0.9773920000 
 H        0.6502900000     1.3518920000    -1.4977500000 
 H        1.6532340000     1.6969690000    -0.0682480000 
 H       -2.2990300000    -0.9399560000    -0.4404060000 
 H       -0.1493380000    -2.1753760000    -0.7669210000 
*
