! RI PBE def2-SVP def2-SVP/J NBO PAL2
% maxcore 2000
% output
    # printlevel mini
    print[ P_Basis ] 0
    print[ P_SCFInfo ] 1
    print[ P_SCFIterInfo ] 1
    print[ P_OrbEn ] 0
    print[ P_Cartesian ] 0
end
*xyz 0 1
 C        0.6678560000    -1.1848240000     0.5073560000 
 O       -0.5327990000    -1.4308170000    -0.2127650000 
 N       -1.5672420000    -0.5350030000    -0.0646060000 
 C       -1.2636910000     0.6860510000     0.1240240000 
 C        0.1023980000     1.2265080000     0.2055320000 
 N        1.0007480000     0.8495410000    -0.9085120000 
 C        1.1654230000     0.2234010000     0.3859390000 
 H        1.3770280000    -1.9081310000     0.1001800000 
 H        0.5074490000    -1.4075310000     1.5717210000 
 H       -2.1195060000     1.3484900000     0.2149820000 
 H        0.2156630000     2.2126180000     0.6410000000 
 H        1.6928780000     1.5799030000    -1.0405750000 
 H        2.0244950000     0.4784040000     1.0011150000 
*
