! RI PBE def2-SVP def2-SVP/J NBO PAL2
% maxcore 2000
% output
    # printlevel mini
    print[ P_Basis ] 0
    print[ P_SCFInfo ] 1
    print[ P_SCFIterInfo ] 1
    print[ P_OrbEn ] 0
    print[ P_Cartesian ] 0
end
*xyz 0 1
 C        0.6575680000    -1.2039570000     0.5303580000 
 O       -0.5816010000    -1.4679360000    -0.1173340000 
 N       -1.5860930000    -0.5401250000    -0.0047940000 
 C       -1.2531310000     0.6841900000     0.0965590000 
 C        0.1298270000     1.1926120000     0.1052580000 
 O        0.9698050000     0.7374680000    -0.9649010000 
 C        1.1629260000     0.1877740000     0.3146790000 
 H        1.3388850000    -1.9539950000     0.1244290000 
 H        0.5549760000    -1.3709150000     1.6123650000 
 H       -2.0895150000     1.3731420000     0.1609410000 
 H        0.2873660000     2.2259700000     0.3966430000 
 H        2.0918980000     0.4530630000     0.8174860000 
*
