! RI PBE def2-SVP def2-SVP/J NBO PAL2
% maxcore 2000
% output
    # printlevel mini
    print[ P_Basis ] 0
    print[ P_SCFInfo ] 1
    print[ P_SCFIterInfo ] 1
    print[ P_OrbEn ] 0
    print[ P_Cartesian ] 0
end
*xyz 0 1
 C        1.0193140000     1.1280720000    -0.2814250000 
 O       -0.1558490000     1.3705640000     0.4826990000 
 N       -1.3379880000     0.8293100000    -0.0220140000 
 C       -1.4048860000    -0.4429210000    -0.0741870000 
 N       -0.4781340000    -1.4210190000     0.1721640000 
 C        0.9059040000    -1.3220730000     0.1550810000 
 C        1.6162920000    -0.2192150000    -0.0591680000 
 H        1.7224060000     1.9042360000     0.0321570000 
 H        0.7929450000     1.3019410000    -1.3400530000 
 H       -2.3821750000    -0.8214450000    -0.3627880000 
 H       -0.8437940000    -2.3566810000     0.1480120000 
 H        1.3973850000    -2.2706370000     0.3356810000 
 H        2.6959610000    -0.3023410000    -0.0270680000 
*
