! RI PBE def2-SVP def2-SVP/J NBO PAL2
% maxcore 2000
% output
    # printlevel mini
    print[ P_Basis ] 0
    print[ P_SCFInfo ] 1
    print[ P_SCFIterInfo ] 1
    print[ P_OrbEn ] 0
    print[ P_Cartesian ] 0
end
*xyz 0 1
 C        1.0211200000     1.1566220000    -0.2744580000 
 O       -0.1591850000     1.4069640000     0.4669780000 
 N       -1.3096080000     0.8136260000    -0.0365580000 
 C       -1.3700690000    -0.4505530000    -0.0623990000 
 O       -0.4955420000    -1.4283410000     0.2426340000 
 C        0.8639010000    -1.3005480000     0.1791340000 
 C        1.5710470000    -0.2134760000    -0.0797990000 
 H        1.7376290000     1.8985670000     0.0869290000 
 H        0.8345120000     1.3709010000    -1.3340610000 
 H       -2.3250160000    -0.8686460000    -0.3641010000 
 H        1.3197210000    -2.2656480000     0.3558990000 
 H        2.6475000000    -0.3379570000    -0.1145980000 
*
