! RI PBE def2-SVP def2-SVP/J NBO PAL2
% maxcore 2000
% output
    # printlevel mini
    print[ P_Basis ] 0
    print[ P_SCFInfo ] 1
    print[ P_SCFIterInfo ] 1
    print[ P_OrbEn ] 0
    print[ P_Cartesian ] 0
end
*xyz 0 1
 C        1.4513390000    -0.0285610000     0.4422260000 
 C        2.7968390000    -0.1441880000    -0.1903640000 
 C        3.5298430000     0.9942090000    -0.8029220000 
 C        4.1271340000     0.2707430000     0.3906860000 
 C        4.9528510000    -0.8821730000     0.0167450000 
 N        4.3391410000    -1.7709950000    -0.6626290000 
 O        3.0144780000    -1.4030720000    -0.7971550000 
 H        1.3372570000     0.9485970000     0.9142050000 
 H        1.3108770000    -0.8038960000     1.1977380000 
 H        0.6677480000    -0.1345530000    -0.3115770000 
 H        3.1318850000     1.9820660000    -0.6077170000 
 H        4.0017880000     0.8577000000    -1.7682180000 
 H        4.2608070000     0.7831760000     1.3348180000 
 H        5.9962240000    -1.0391540000     0.2580760000 
*
