! RI PBE def2-SVP def2-SVP/J NBO PAL2
% maxcore 2000
% output
    # printlevel mini
    print[ P_Basis ] 0
    print[ P_SCFInfo ] 1
    print[ P_SCFIterInfo ] 1
    print[ P_OrbEn ] 0
    print[ P_Cartesian ] 0
end
*xyz 0 1
 C        0.9597940000    -0.0870420000    -0.2305900000 
 C        2.3454960000    -0.0189370000     0.3385310000 
 C        3.4514030000     0.7290690000    -0.3164920000 
 O        3.2968480000     1.0552950000    -1.6758770000 
 N        3.2605410000    -0.1037860000    -2.4315600000 
 C        3.4223350000    -1.1083060000    -1.6623880000 
 C        3.5331430000    -0.7777180000    -0.2377320000 
 H        0.3798540000     0.7832430000     0.0857930000 
 H        0.4394580000    -0.9839710000     0.1143010000 
 H        0.9697620000    -0.0962060000    -1.3209210000 
 H        2.3933320000     0.0331560000     1.4219450000 
 H        4.0886610000     1.4251020000     0.2144610000 
 H        3.4654240000    -2.0960570000    -2.1024170000 
 H        4.1940500000    -1.3349510000     0.4134460000 
*
