! RI PBE def2-SVP def2-SVP/J NBO PAL2
% maxcore 2000
% output
    # printlevel mini
    print[ P_Basis ] 0
    print[ P_SCFInfo ] 1
    print[ P_SCFIterInfo ] 1
    print[ P_OrbEn ] 0
    print[ P_Cartesian ] 0
end
*xyz 0 1
 C        1.2272690000    -0.0687170000     0.1079600000 
 C        2.6919010000     0.0631460000    -0.1898010000 
 C        3.2843570000    -0.5663640000    -1.4052620000 
 C        3.1584900000     0.9266030000    -1.3448990000 
 C        4.3423170000     1.7827660000    -1.1865340000 
 N        5.5037410000     1.2894940000    -1.0725490000 
 O        6.4600590000     2.2725100000    -0.8686330000 
 H        1.0177240000    -1.0019810000     0.6382400000 
 H        0.6412910000    -0.0747700000    -0.8150390000 
 H        0.8673280000     0.7565450000     0.7281420000 
 H        3.3456490000     0.0987850000     0.6762010000 
 H        2.6149500000    -1.0894790000    -2.0782950000 
 H        4.2856680000    -0.9711130000    -1.3408020000 
 H        2.3623280000     1.3769080000    -1.9290570000 
 H        4.2033820000     2.8651860000    -1.1391430000 
 H        7.2787570000     1.7712820000    -0.8280320000 
*
