! RI PBE def2-SVP def2-SVP/J NBO PAL2
% maxcore 2000
% output
    # printlevel mini
    print[ P_Basis ] 0
    print[ P_SCFInfo ] 1
    print[ P_SCFIterInfo ] 1
    print[ P_OrbEn ] 0
    print[ P_Cartesian ] 0
end
*xyz 0 1
 C        0.9170440000    -0.0100950000    -0.1284400000 
 C        2.4087110000    -0.0627320000     0.0325930000 
 C        3.2429310000    -0.9068200000    -0.8656070000 
 C        3.2929990000     0.5945200000    -0.9988990000 
 C        4.4818400000     1.4047330000    -0.6148250000 
 N        5.2480980000     0.9370440000     0.4092970000 
 O        4.7369640000     2.4530900000    -1.1725060000 
 H        0.4341990000    -0.8249150000     0.4177230000 
 H        0.6363520000    -0.1020730000    -1.1806530000 
 H        0.5116160000     0.9335750000     0.2445140000 
 H        2.7600170000     0.0325240000     1.0556880000 
 H        2.7450280000    -1.4470640000    -1.6622030000 
 H        4.1105370000    -1.4189970000    -0.4660860000 
 H        2.7925010000     1.0252980000    -1.8570670000 
 H        5.1418760000     0.0133860000     0.7847690000 
 H        6.0860770000     1.4480290000     0.6247810000 
*
