! RI PBE def2-SVP def2-SVP/J NBO PAL2
% maxcore 2000
% output
    # printlevel mini
    print[ P_Basis ] 0
    print[ P_SCFInfo ] 1
    print[ P_SCFIterInfo ] 1
    print[ P_OrbEn ] 0
    print[ P_Cartesian ] 0
end
*xyz 0 1
 C        0.9694690000     0.2127450000    -0.1300240000 
 C        2.4681790000     0.1560820000    -0.0370970000 
 C        3.2611430000    -0.7280920000    -0.9622940000 
 C        3.3669030000     0.7675210000    -1.0684770000 
 N        2.7954360000     1.5126890000    -2.1600220000 
 C        4.6454160000     1.4191440000    -0.6024870000 
 O        4.4446790000     2.7780820000    -0.3125540000 
 H        0.5185830000    -0.5701400000     0.4851170000 
 H        0.6140340000     0.0523980000    -1.1513890000 
 H        0.5811070000     1.1733610000     0.2202760000 
 H        2.8476670000     0.2324820000     0.9775670000 
 H        2.7082010000    -1.2421150000    -1.7412020000 
 H        4.1057370000    -1.2819970000    -0.5675160000 
 H        1.7862350000     1.4927260000    -2.1610890000 
 H        3.1240800000     1.1838220000    -3.0587190000 
 H        5.4166030000     1.2948690000    -1.3810180000 
 H        5.0138500000     0.9317660000     0.3043120000 
 H        3.8606870000     3.0905590000    -1.0181050000 
*
