! RI PBE def2-SVP def2-SVP/J NBO PAL2
% maxcore 2000
% output
    # printlevel mini
    print[ P_Basis ] 0
    print[ P_SCFInfo ] 1
    print[ P_SCFIterInfo ] 1
    print[ P_OrbEn ] 0
    print[ P_Cartesian ] 0
end
*xyz 0 1
 C        0.8725250000     0.2340840000    -0.2070690000 
 C        2.3474180000    -0.0003810000    -0.0550960000 
 C        3.0957690000    -0.8374210000    -1.0440460000 
 C        3.3157050000     0.6456650000    -1.0023310000 
 N        4.5608890000     1.1314390000    -0.5124660000 
 C        4.6838770000     2.1181620000     0.4071740000 
 O        5.7291740000     2.6220460000     0.7432940000 
 H        0.2990150000    -0.5964080000     0.2122440000 
 H        0.5962420000     0.3263610000    -1.2604970000 
 H        0.5595150000     1.1494840000     0.3019460000 
 H        2.7037640000    -0.0772450000     0.9669010000 
 H        2.5535000000    -1.2378740000    -1.8920450000 
 H        3.8981720000    -1.4638920000    -0.6747450000 
 H        2.8749790000     1.2172760000    -1.8165500000 
 H        5.4115950000     0.8635880000    -0.9855810000 
 H        3.7080610000     2.4118150000     0.8383680000 
*
