! RI PBE def2-SVP def2-SVP/J NBO PAL2
% maxcore 2000
% output
    # printlevel mini
    print[ P_Basis ] 0
    print[ P_SCFInfo ] 1
    print[ P_SCFIterInfo ] 1
    print[ P_OrbEn ] 0
    print[ P_Cartesian ] 0
end
*xyz 0 1
 C        0.9682720000     0.0704770000    -0.1305690000 
 C        2.4631520000     0.0706720000    -0.0016300000 
 C        3.2880760000    -0.9401310000    -0.7645720000 
 C        3.3378230000     0.4891670000    -1.1595480000 
 O        2.7334260000     0.8175500000    -2.3692680000 
 C        4.5650520000     1.3174700000    -0.8979110000 
 N        4.2026690000     2.7261450000    -1.0090760000 
 H        0.5171720000    -0.7184860000     0.4775570000 
 H        0.6752270000    -0.0867320000    -1.1698290000 
 H        0.5419900000     1.0248900000     0.1915490000 
 H        2.8430560000     0.3257460000     0.9848730000 
 H        2.7486070000    -1.5961770000    -1.4379200000 
 H        4.1547040000    -1.3854150000    -0.2891900000 
 H        2.8047810000     1.7826950000    -2.4198650000 
 H        5.3063370000     1.1005020000    -1.6736180000 
 H        5.0042800000     1.0385130000     0.0697930000 
 H        5.0165580000     3.3139690000    -1.1238480000 
 H        3.7096080000     3.0389540000    -0.1819260000 
*
