! RI PBE def2-SVP def2-SVP/J NBO PAL2
% maxcore 2000
% output
    # printlevel mini
    print[ P_Basis ] 0
    print[ P_SCFInfo ] 1
    print[ P_SCFIterInfo ] 1
    print[ P_OrbEn ] 0
    print[ P_Cartesian ] 0
end
*xyz 0 1
 C        0.5699130000     0.0424540000     0.1011560000 
 C        2.0331710000    -0.2922100000     0.0669870000 
 C        2.6312270000    -1.0569550000    -1.0845940000 
 C        2.9430820000     0.3891920000    -0.8889020000 
 O        4.1937200000     0.7447700000    -0.3757240000 
 N        5.1299530000     0.7783510000    -1.3865660000 
 C        6.2707200000     1.1126740000    -0.9565770000 
 H       -0.0151430000    -0.7929700000     0.4945950000 
 H        0.1939760000     0.2635290000    -0.9011480000 
 H        0.3763820000     0.9154330000     0.7301220000 
 H        2.4873510000    -0.5016850000     1.0303960000 
 H        1.9893140000    -1.3294680000    -1.9142340000 
 H        3.4249280000    -1.7601640000    -0.8667410000 
 H        2.5319380000     1.1145680000    -1.5849160000 
 H        7.0669550000     1.1680030000    -1.6889050000 
 H        6.4637210000     1.3379570000     0.0915620000 
*
