! RI PBE def2-SVP def2-SVP/J NBO PAL2
% maxcore 2000
% output
    # printlevel mini
    print[ P_Basis ] 0
    print[ P_SCFInfo ] 1
    print[ P_SCFIterInfo ] 1
    print[ P_OrbEn ] 0
    print[ P_Cartesian ] 0
end
*xyz 0 1
 C        1.0337020000    -0.0115060000    -0.0034820000 
 C        2.5090540000     0.1289020000     0.0146930000 
 C        3.3320480000     1.2295440000    -0.0614130000 
 C        4.6747650000     0.7861800000     0.0158780000 
 C        4.6529340000    -0.5794330000     0.1385470000 
 N        3.3412370000    -0.9474420000     0.1231110000 
 O        2.9069250000    -2.2311380000     0.3025690000 
 H        0.5768330000     0.9772360000    -0.0374000000 
 H        0.6658990000    -0.5292090000     0.8864490000 
 H        0.6803770000    -0.5719150000    -0.8751550000 
 H        2.9919590000     2.2490820000    -0.1599600000 
 H        5.5620030000     1.3989230000    -0.0091840000 
 H        5.4315550000    -1.3159620000     0.2459570000 
 H        2.8296190000    -2.6100730000    -0.5822300000 
*
