! RI PBE def2-SVP def2-SVP/J NBO PAL2
% maxcore 2000
% output
    # printlevel mini
    print[ P_Basis ] 0
    print[ P_SCFInfo ] 1
    print[ P_SCFIterInfo ] 1
    print[ P_OrbEn ] 0
    print[ P_Cartesian ] 0
end
*xyz 0 1
 C        0.9514030000    -0.1059460000     0.0608720000 
 C        2.4648420000    -0.1359090000    -0.0216140000 
 C        3.1163540000     0.0057740000     1.3398450000 
 C        2.9961180000    -1.3387640000    -0.8159060000 
 C        3.6369130000    -0.6475420000    -1.9703870000 
 N        3.5527470000     0.6181450000    -1.9379760000 
 O        2.8755290000     1.0184190000    -0.8177060000 
 H        0.5831720000    -0.9443520000     0.6579110000 
 H        0.5140050000    -0.1699900000    -0.9375370000 
 H        0.6133420000     0.8227420000     0.5246330000 
 H        2.8357500000    -0.8286560000     1.9878890000 
 H        2.8017930000     0.9352300000     1.8183520000 
 H        4.2037700000     0.0209880000     1.2421340000 
 H        2.1994020000    -2.0160360000    -1.1383460000 
 H        3.7172030000    -1.9336820000    -0.2471060000 
 H        4.1479660000    -1.1179310000    -2.8007790000 
*
