! RI PBE def2-SVP def2-SVP/J NBO PAL2
% maxcore 2000
% output
    # printlevel mini
    print[ P_Basis ] 0
    print[ P_SCFInfo ] 1
    print[ P_SCFIterInfo ] 1
    print[ P_OrbEn ] 0
    print[ P_Cartesian ] 0
end
*xyz 0 1
 C        1.0451990000     0.0077360000     0.2222520000 
 C        2.5282990000     0.0989480000    -0.0612400000 
 C        3.1022390000    -1.1302730000    -0.7575220000 
 C        3.2827250000    -0.5957850000    -2.1463670000 
 C        3.6699360000    -1.4040230000    -3.3277760000 
 N        3.1001690000     0.6598650000    -2.2274760000 
 O        2.7678860000     1.1783260000    -0.9941490000 
 H        0.8444040000    -0.7677540000     0.9663730000 
 H        0.4966660000    -0.2358590000    -0.6911580000 
 H        0.6700460000     0.9585660000     0.6038930000 
 H        3.0759590000     0.3534330000     0.8492960000 
 H        2.4244990000    -1.9878920000    -0.7258360000 
 H        4.0629070000    -1.4574370000    -0.3460190000 
 H        2.9264530000    -2.1807400000    -3.5305860000 
 H        4.6239920000    -1.9112950000    -3.1535640000 
 H        3.7638210000    -0.7667180000    -4.2062300000 
*
