! RI PBE def2-SVP def2-SVP/J NBO PAL2
% maxcore 2000
% output
    # printlevel mini
    print[ P_Basis ] 0
    print[ P_SCFInfo ] 1
    print[ P_SCFIterInfo ] 1
    print[ P_OrbEn ] 0
    print[ P_Cartesian ] 0
end
*xyz 0 1
 C        0.9701930000    -0.2302980000     0.2898960000 
 C        2.3867080000     0.0113900000    -0.1585270000 
 C        3.1932420000     1.0905540000     0.5746650000 
 C        4.1062130000    -0.0667380000     0.9893960000 
 C        5.5308840000     0.0041610000     0.4954890000 
 N        6.2741690000    -1.1896320000     0.8487030000 
 O        3.2903860000    -1.0173730000     0.2868390000 
 H        0.3216160000     0.5871310000    -0.0384420000 
 H        0.9153260000    -0.3043850000     1.3787940000 
 H        0.5896140000    -1.1612560000    -0.1365930000 
 H        2.4231450000     0.1003260000    -1.2516310000 
 H        2.6626640000     1.5875610000     1.3870390000 
 H        3.6649530000     1.8407810000    -0.0614570000 
 H        4.1046360000    -0.2850700000     2.0665830000 
 H        5.9624680000     0.9429060000     0.8872060000 
 H        5.5112040000     0.0912960000    -0.5955710000 
 H        6.4035980000    -1.2481020000     1.8513740000 
 H        7.1933800000    -1.1836640000     0.4271270000 
*
