! RI PBE def2-SVP def2-SVP/J NBO PAL2
% maxcore 2000
% output
    # printlevel mini
    print[ P_Basis ] 0
    print[ P_SCFInfo ] 1
    print[ P_SCFIterInfo ] 1
    print[ P_OrbEn ] 0
    print[ P_Cartesian ] 0
end
*xyz 0 1
 C        1.1253090000    -0.1684420000    -0.4042910000 
 C        2.5316000000     0.0031320000     0.1392540000 
 C        3.2224500000     1.2730480000    -0.3235070000 
 C        3.4556770000     1.1852230000    -1.8203450000 
 C        3.8926760000    -0.1952810000    -2.1785170000 
 N        3.8583590000    -1.2334870000    -1.4445100000 
 O        3.3280750000    -1.1449840000    -0.1821700000 
 H        0.4960540000     0.6717860000    -0.0992640000 
 H        0.6852030000    -1.0887470000    -0.0181740000 
 H        1.1170700000    -0.2248600000    -1.4944080000 
 H        2.5004070000    -0.0240330000     1.2316690000 
 H        4.1795790000     1.3570740000     0.1977430000 
 H        2.6260620000     2.1489000000    -0.0584910000 
 H        4.2212020000     1.8948760000    -2.1478700000 
 H        2.5514230000     1.4418310000    -2.3846730000 
 H        4.3318340000    -0.3785160000    -3.1560260000 
*
