! RI PBE def2-SVP def2-SVP/J NBO PAL2
% maxcore 2000
% output
    # printlevel mini
    print[ P_Basis ] 0
    print[ P_SCFInfo ] 1
    print[ P_SCFIterInfo ] 1
    print[ P_OrbEn ] 0
    print[ P_Cartesian ] 0
end
*xyz 0 1
 C        0.8989930000    -0.0950730000    -0.0679690000 
 C        2.3659030000     0.0899680000    -0.0610580000 
 C        3.1744970000     1.1781570000    -0.0579980000 
 C        4.4854820000     0.6347510000    -0.0512790000 
 C        5.7870450000     1.3597430000    -0.0455640000 
 N        4.4503580000    -0.6699880000    -0.0504640000 
 O        3.1172110000    -1.0155030000    -0.0566090000 
 H        0.3982240000     0.8721740000    -0.0711150000 
 H        0.5742890000    -0.6541620000     0.8129300000 
 H        0.5827700000    -0.6555090000    -0.9510940000 
 H        2.8846840000     2.2159890000    -0.0601790000 
 H        5.6269800000     2.4377110000    -0.0472190000 
 H        6.3799510000     1.0975000000    -0.9235700000 
 H        6.3714120000     1.0989410000     0.8385760000 
*
