! RI PBE def2-SVP def2-SVP/J NBO PAL2
% maxcore 2000
% output
    # printlevel mini
    print[ P_Basis ] 0
    print[ P_SCFInfo ] 1
    print[ P_SCFIterInfo ] 1
    print[ P_OrbEn ] 0
    print[ P_Cartesian ] 0
end
*xyz 0 1
 C        1.1378500000    -0.0421970000     0.4149730000 
 C        2.4052770000     0.0725610000     0.0302760000 
 C        3.2148490000     1.3433780000    -0.1160840000 
 C        4.5978440000     0.8881820000    -0.5855560000 
 C        4.5150350000    -0.6226150000    -0.6842950000 
 O        5.3826600000    -1.3899440000    -1.0176920000 
 N        3.2430480000    -0.9751610000    -0.3171000000 
 H        0.5642480000     0.8392950000     0.6664300000 
 H        0.6448170000    -1.0034820000     0.4886770000 
 H        3.2553140000     1.8715030000     0.8377590000 
 H        2.7341700000     2.0113930000    -0.8323530000 
 H        5.4013290000     1.1462670000     0.1062330000 
 H        4.8798490000     1.2836730000    -1.5627270000 
 H        2.9594100000    -1.9416420000    -0.3086330000 
*
