! RI PBE def2-SVP def2-SVP/J NBO PAL2
% maxcore 2000
% output
    # printlevel mini
    print[ P_Basis ] 0
    print[ P_SCFInfo ] 1
    print[ P_SCFIterInfo ] 1
    print[ P_OrbEn ] 0
    print[ P_Cartesian ] 0
end
*xyz 0 1
 C        0.9634320000     0.0139970000     0.1485210000 
 C        2.4522930000     0.1175090000    -0.1197240000 
 C        2.7620900000     0.1163430000    -1.6041130000 
 C        3.1898290000     1.2117300000     0.7010400000 
 C        3.9262040000     0.0572490000     1.3892430000 
 O        4.7634250000    -0.0450250000     2.2423220000 
 N        3.2492880000    -0.8570590000     0.6412810000 
 H        0.4309990000     0.8512190000    -0.3095520000 
 H        0.7600610000     0.0191000000     1.2212750000 
 H        0.5552850000    -0.9092460000    -0.2725750000 
 H        2.2690240000     0.9558020000    -2.1005510000 
 H        2.4055300000    -0.8039670000    -2.0754690000 
 H        3.8373330000     0.1942100000    -1.7772520000 
 H        2.5605970000     1.7986910000     1.3704210000 
 H        3.8388000000     1.8715220000     0.1248140000 
 H        3.2890110000    -1.8648870000     0.6231080000 
*
