! RI PBE def2-SVP def2-SVP/J NBO PAL2
% maxcore 2000
% output
    # printlevel mini
    print[ P_Basis ] 0
    print[ P_SCFInfo ] 1
    print[ P_SCFIterInfo ] 1
    print[ P_OrbEn ] 0
    print[ P_Cartesian ] 0
end
*xyz 0 1
 C        1.1065410000    -0.1267240000     0.4175540000 
 C        2.4880970000     0.0257130000    -0.1753410000 
 C        3.2919890000     1.2416300000     0.3282150000 
 C        4.1873150000     0.2408220000     1.0776420000 
 C        5.6689900000     0.2662050000     0.7743260000 
 O        6.2699290000    -0.9562900000     1.1269630000 
 N        3.5153920000    -0.8831880000     0.3880340000 
 H        0.4255580000     0.6268930000     0.0123760000 
 H        1.1304060000    -0.0118990000     1.5055820000 
 H        0.6885620000    -1.1108910000     0.1858980000 
 H        2.4276330000    -0.0585370000    -1.2654820000 
 H        2.7333000000     1.9460990000     0.9448480000 
 H        3.8142680000     1.7928770000    -0.4555980000 
 H        4.0372600000     0.2384740000     2.1632460000 
 H        6.1710390000     1.0518010000     1.3460930000 
 H        5.8123550000     0.4794950000    -0.2955530000 
 H        5.7771260000    -1.6312130000     0.6446320000 
 H        3.1322200000    -1.5845690000     1.0097660000 
*
