! RI PBE def2-SVP def2-SVP/J NBO PAL2
% maxcore 2000
% output
    # printlevel mini
    print[ P_Basis ] 0
    print[ P_SCFInfo ] 1
    print[ P_SCFIterInfo ] 1
    print[ P_OrbEn ] 0
    print[ P_Cartesian ] 0
end
*xyz 0 1
 C        0.9728480000    -0.0940050000     0.0755710000 
 C        2.4523450000     0.0108930000     0.0813980000 
 C        3.2849990000     1.0945740000     0.0838930000 
 C        4.6349260000     0.6300830000     0.0896260000 
 C        4.5637070000    -0.7352410000     0.0903890000 
 O        5.4940970000    -1.7169660000     0.0948470000 
 N        3.2591270000    -1.1087330000     0.0854740000 
 H        0.5360790000     0.9048480000     0.0730870000 
 H        0.5906800000    -0.6191020000     0.9578910000 
 H        0.5977300000    -0.6204140000    -0.8089890000 
 H        2.9644400000     2.1252480000     0.0818270000 
 H        5.5343340000     1.2259560000     0.0927510000 
 H        6.3634700000    -1.3098280000     0.0980610000 
 H        2.9486960000    -2.0637940000     0.0849730000 
*
