! RI PBE def2-SVP def2-SVP/J NBO PAL2
% maxcore 2000
% output
    # printlevel mini
    print[ P_Basis ] 0
    print[ P_SCFInfo ] 1
    print[ P_SCFIterInfo ] 1
    print[ P_OrbEn ] 0
    print[ P_Cartesian ] 0
end
*xyz 0 1
 C        0.8509040000    -0.0290210000     0.1472070000 
 C        2.3012380000     0.1510370000    -0.1786600000 
 C        3.0296300000    -0.5703420000    -1.2289170000 
 C        2.4372740000    -1.6003390000    -2.1401430000 
 N        2.6129440000     0.8300590000    -1.4543930000 
 C        3.6710210000     1.7571210000    -1.3569390000 
 O        3.7368760000     2.7584300000    -1.9995790000 
 H        0.7281070000    -0.7983310000     0.9141350000 
 H        0.2768210000    -0.3181780000    -0.7320320000 
 H        0.4296440000     0.9025210000     0.5313910000 
 H        2.9178770000     0.4597000000     0.6663630000 
 H        4.0933030000    -0.7044660000    -1.0284430000 
 H        1.3806550000    -1.4106460000    -2.3240260000 
 H        2.5433960000    -2.5972130000    -1.7041630000 
 H        2.9515240000    -1.5955630000    -3.1036550000 
 H        4.4652980000     1.4824200000    -0.6215480000 
*
