! RI PBE def2-SVP def2-SVP/J NBO PAL2
% maxcore 2000
% output
    # printlevel mini
    print[ P_Basis ] 0
    print[ P_SCFInfo ] 1
    print[ P_SCFIterInfo ] 1
    print[ P_OrbEn ] 0
    print[ P_Cartesian ] 0
end
*xyz 0 1
 C        0.9614940000     0.1558440000     0.2318840000 
 C        2.4578340000     0.0189450000     0.0913330000 
 C        3.3439300000     1.1358730000     0.6946560000 
 C        4.0386600000     0.0612530000     1.5583580000 
 N        3.0992760000    -0.9137320000     1.0189050000 
 C        3.1004430000    -2.2558670000     1.0172340000 
 O        2.3916970000    -2.9475420000     0.3175590000 
 H        0.5972190000     0.9586340000    -0.4147570000 
 H        0.6890390000     0.3924950000     1.2635530000 
 H        0.4646820000    -0.7720840000    -0.0547070000 
 H        2.7151210000    -0.2244460000    -0.9457520000 
 H        2.7789090000     1.8669600000     1.2726360000 
 H        3.9900590000     1.6560950000    -0.0099180000 
 H        3.9721210000     0.2026200000     2.6400820000 
 H        5.0803270000    -0.1359100000     1.2881240000 
 H        3.8220890000    -2.6774460000     1.7457200000 
*
