! RI PBE def2-SVP def2-SVP/J NBO PAL2
% maxcore 2000
% output
    # printlevel mini
    print[ P_Basis ] 0
    print[ P_SCFInfo ] 1
    print[ P_SCFIterInfo ] 1
    print[ P_OrbEn ] 0
    print[ P_Cartesian ] 0
end
*xyz 0 1
 C        1.1124150000    -0.0002260000    -0.1059910000 
 C        2.4249320000    -0.1089130000     0.0994930000 
 C        3.2858330000    -1.2668200000     0.2455040000 
 C        4.5364130000    -0.8142580000     0.4356960000 
 N        4.5762710000     0.5738600000     0.4275740000 
 C        3.3161050000     1.0999350000     0.2256380000 
 O        3.0329020000     2.2717430000     0.1695260000 
 H        0.4709080000    -0.8687720000    -0.1968880000 
 H        0.6635890000     0.9833510000    -0.1860870000 
 H        2.9827480000    -2.3008920000     0.2090100000 
 H        5.4457420000    -1.3782400000     0.5832600000 
 H        5.3947410000     1.1425210000     0.5492850000 
*
