! RI PBE def2-SVP def2-SVP/J NBO PAL2
% maxcore 2000
% output
    # printlevel mini
    print[ P_Basis ] 0
    print[ P_SCFInfo ] 1
    print[ P_SCFIterInfo ] 1
    print[ P_OrbEn ] 0
    print[ P_Cartesian ] 0
end
*xyz 0 1
 C        1.0812410000    -0.1233780000     0.4222170000 
 C        2.3470070000     0.0068220000     0.0554090000 
 C        3.1768230000     1.2470660000    -0.1041250000 
 C        4.5649460000     0.7451450000    -0.5539980000 
 N        4.4162320000    -0.6884740000    -0.6086700000 
 C        3.1921840000    -1.1795430000    -0.2787010000 
 O        2.8707050000    -2.3469620000    -0.2644520000 
 H        0.4547490000     0.7266690000     0.6677350000 
 H        0.6495680000    -1.1165240000     0.4809510000 
 H        3.2462270000     1.8026550000     0.8331460000 
 H        2.7452360000     1.9223100000    -0.8455490000 
 H        5.3465640000     1.0337480000     0.1554950000 
 H        4.8417710000     1.1504830000    -1.5321180000 
 H        5.1588480000    -1.3126180000    -0.8736390000 
*
