! RI PBE def2-SVP def2-SVP/J NBO PAL2
% maxcore 2000
% output
    # printlevel mini
    print[ P_Basis ] 0
    print[ P_SCFInfo ] 1
    print[ P_SCFIterInfo ] 1
    print[ P_OrbEn ] 0
    print[ P_Cartesian ] 0
end
*xyz 0 1
 C        0.9375500000     0.0934810000    -0.0646530000 
 C        2.4119240000     0.1626670000    -0.0644940000 
 C        3.2638290000     1.1862700000    -0.0628840000 
 C        4.6305470000     0.5973620000    -0.0636100000 
 N        4.6724740000    -0.6793310000    -0.0654950000 
 C        3.2901960000    -1.0785850000    -0.0665000000 
 O        2.9103330000    -2.2104050000    -0.0680410000 
 H        0.4858150000     1.0854030000    -0.0630960000 
 H        0.5819280000    -0.4604880000     0.8088190000 
 H        0.5819900000    -0.4577140000    -0.9399020000 
 H        3.0444310000     2.2452490000    -0.0612690000 
 H        5.5419830000     1.1899920000    -0.0625650000 
*
