! RI PBE def2-SVP def2-SVP/J NBO PAL2
% maxcore 2000
% output
    # printlevel mini
    print[ P_Basis ] 0
    print[ P_SCFInfo ] 1
    print[ P_SCFIterInfo ] 1
    print[ P_OrbEn ] 0
    print[ P_Cartesian ] 0
end
*xyz 0 1
 C        0.9170740000    -0.0109380000     0.0257140000 
 C        2.3932270000    -0.1075390000    -0.0409590000 
 C        3.1925330000    -1.1732280000    -0.0841270000 
 C        4.6283090000    -0.7614650000    -0.1450180000 
 N        4.5336230000     0.6688410000    -0.1308160000 
 C        3.2455640000     1.1189910000    -0.0707050000 
 O        2.8815980000     2.2746990000    -0.0461730000 
 H        0.4484010000    -0.9954640000     0.0389480000 
 H        0.5339190000     0.5541030000    -0.8280660000 
 H        0.6118760000     0.5403940000     0.9189820000 
 H        2.8895220000    -2.2124650000    -0.0778570000 
 H        5.1158670000    -1.1364430000    -1.0546310000 
 H        5.1943600000    -1.1488220000     0.7124590000 
 H        5.3158260000     1.2973360000    -0.1611620000 
*
