! RI PBE def2-SVP def2-SVP/J NBO PAL2
% maxcore 2000
% output
    # printlevel mini
    print[ P_Basis ] 0
    print[ P_SCFInfo ] 1
    print[ P_SCFIterInfo ] 1
    print[ P_OrbEn ] 0
    print[ P_Cartesian ] 0
end
*xyz 0 1
 C        0.8932060000     0.0236570000    -0.1909370000 
 C        2.3714270000    -0.0914660000     0.0628840000 
 C        2.7610900000    -0.1019820000     1.5165900000 
 C        3.2218890000    -0.9251230000    -0.8897470000 
 N        2.7347110000    -1.6466050000    -2.0263790000 
 C        3.2997160000     0.5662050000    -0.9142040000 
 O        4.4181420000     1.2353120000    -0.4275180000 
 H        0.3512370000    -0.8010710000     0.2830880000 
 H        0.6539700000     0.0051570000    -1.2563030000 
 H        0.5009510000     0.9575730000     0.2217010000 
 H        2.3024050000    -0.9529030000     2.0294400000 
 H        2.4269800000     0.8112970000     2.0181180000 
 H        3.8424800000    -0.1650310000     1.6406450000 
 H        4.0690590000    -1.4039640000    -0.4038930000 
 H        2.2705350000    -1.0396270000    -2.6873050000 
 H        2.0799970000    -2.3715220000    -1.7603590000 
 H        2.8190480000     1.0545870000    -1.7647360000 
 H        5.1590350000     1.0448170000    -1.0091740000 
*
