! RI PBE def2-SVP def2-SVP/J NBO PAL2
% maxcore 2000
% output
    # printlevel mini
    print[ P_Basis ] 0
    print[ P_SCFInfo ] 1
    print[ P_SCFIterInfo ] 1
    print[ P_OrbEn ] 0
    print[ P_Cartesian ] 0
end
*xyz 0 1
 C        1.0423880000     0.0415820000     0.0190680000 
 C        2.5500980000     0.1005140000     0.0697210000 
 C        3.2453070000     1.1357830000     0.9826980000 
 C        4.3222430000     0.0889890000     1.3256490000 
 N        5.5289800000     0.2639400000     0.5485520000 
 C        3.3277200000    -0.9902670000     0.8324220000 
 O        3.9199200000    -2.0482060000     0.1265500000 
 H        0.6212220000     0.9421590000    -0.4362350000 
 H        0.6213850000    -0.0470840000     1.0254530000 
 H        0.6929180000    -0.8141800000    -0.5667260000 
 H        2.9603560000     0.1674720000    -0.9434890000 
 H        2.6297000000     1.3943000000     1.8474880000 
 H        3.6101630000     2.0556840000     0.5229980000 
 H        4.6031450000     0.0094450000     2.3783400000 
 H        5.3013750000     0.3841260000    -0.4322170000 
 H        6.0892180000    -0.5799290000     0.5986960000 
 H        2.7267550000    -1.3618740000     1.6751680000 
 H        3.2485950000    -2.7046540000    -0.0733240000 
*
