! RI PBE def2-SVP def2-SVP/J NBO PAL2
% maxcore 2000
% output
    # printlevel mini
    print[ P_Basis ] 0
    print[ P_SCFInfo ] 1
    print[ P_SCFIterInfo ] 1
    print[ P_OrbEn ] 0
    print[ P_Cartesian ] 0
end
*xyz 0 1
 C        1.0596680000    -0.0569910000    -0.0106430000 
 C        2.5718670000     0.0044550000     0.0089810000 
 C        3.1950020000     1.1480500000     0.8066430000 
 C        4.5466650000     0.5935460000     1.2639080000 
 N        4.2807200000    -0.8233370000     1.3461550000 
 C        3.2084090000    -1.2394740000     0.6220720000 
 O        2.8455570000    -2.3850980000     0.4810620000 
 H        0.6358120000     0.7961100000    -0.5451930000 
 H        0.6585020000    -0.0545830000     1.0062970000 
 H        0.7269850000    -0.9746120000    -0.4982290000 
 H        2.9443060000     0.0331090000    -1.0243960000 
 H        2.5727330000     1.3580030000     1.6817790000 
 H        3.2962980000     2.0733140000     0.2385070000 
 H        4.8588180000     0.9983990000     2.2292470000 
 H        5.3373870000     0.8137270000     0.5347120000 
 H        4.9291600000    -1.4937180000     1.7233070000 
*
