! RI PBE def2-SVP def2-SVP/J NBO PAL2
% maxcore 2000
% output
    # printlevel mini
    print[ P_Basis ] 0
    print[ P_SCFInfo ] 1
    print[ P_SCFIterInfo ] 1
    print[ P_OrbEn ] 0
    print[ P_Cartesian ] 0
end
*xyz 0 1
 C        0.9286660000     0.0365230000    -0.0317180000 
 C        2.4014640000     0.1646320000    -0.0253310000 
 C        3.2314280000     1.2386820000    -0.0225510000 
 C        4.5688100000     0.7262580000    -0.0162530000 
 N        5.7106690000     1.4856300000    -0.0119840000 
 C        4.4417290000    -0.6279660000    -0.0156780000 
 O        3.1160710000    -0.9737090000    -0.0212390000 
 H        0.4689230000     1.0246330000    -0.0345940000 
 H        0.5743330000    -0.5059510000     0.8494200000 
 H        0.5821190000    -0.5074630000    -0.9150180000 
 H        2.9329630000     2.2760810000    -0.0247400000 
 H        5.6559040000     2.4829960000    -0.0119350000 
 H        6.6157200000     1.0613520000    -0.0066810000 
 H        5.1481890000    -1.4397970000    -0.0119180000 
*
