! RI PBE def2-SVP def2-SVP/J NBO PAL2
% maxcore 2000
% output
    # printlevel mini
    print[ P_Basis ] 0
    print[ P_SCFInfo ] 1
    print[ P_SCFIterInfo ] 1
    print[ P_OrbEn ] 0
    print[ P_Cartesian ] 0
end
*xyz 0 1
 C        1.0155850000     0.0394300000     0.0017500000 
 C        2.4943710000     0.1349350000     0.0072260000 
 C        3.3774240000     1.2074560000     0.0097420000 
 C        4.6527190000     0.6383700000     0.0149240000 
 N        4.5867810000    -0.6942920000     0.0156300000 
 N        3.2960580000    -0.9395510000     0.0109920000 
 O        2.8549050000    -2.2277390000     0.0102140000 
 H        0.5833730000     1.0392460000    -0.0003590000 
 H        0.6464180000    -0.4933400000     0.8817430000 
 H        0.6529990000    -0.4942010000    -0.8804570000 
 H        3.1120340000     2.2520960000     0.0079550000 
 H        5.6164570000     1.1231450000     0.0182190000 
 H        3.6820680000    -2.7307560000     0.0146220000 
*
