! RI PBE def2-SVP def2-SVP/J NBO PAL2
% maxcore 2000
% output
    # printlevel mini
    print[ P_Basis ] 0
    print[ P_SCFInfo ] 1
    print[ P_SCFIterInfo ] 1
    print[ P_OrbEn ] 0
    print[ P_Cartesian ] 0
end
*xyz 0 1
 C        0.9751160000     0.0036850000     0.0489010000 
 C        2.4755590000     0.0745580000    -0.0280640000 
 C        3.1346390000     1.2886330000     0.6168080000 
 C        4.4349060000     0.7137940000     1.1301270000 
 N        5.4421030000     1.2467920000     1.6799850000 
 N        4.3753970000    -0.6474380000     0.8651750000 
 O        3.0191130000    -1.0199630000     0.7058080000 
 H        0.5317340000     0.8167350000    -0.5297200000 
 H        0.6384760000     0.0877020000     1.0843990000 
 H        0.6132730000    -0.9415040000    -0.3594870000 
 H        2.8154290000    -0.0101780000    -1.0702600000 
 H        2.5497730000     1.6517860000     1.4677470000 
 H        3.2976140000     2.1176560000    -0.0723340000 
 H        5.3397020000     2.2560500000     1.7218390000 
 H        4.8011770000    -1.2556010000     1.5517760000 
*
