! RI PBE def2-SVP def2-SVP/J NBO PAL2
% maxcore 2000
% output
    # printlevel mini
    print[ P_Basis ] 0
    print[ P_SCFInfo ] 1
    print[ P_SCFIterInfo ] 1
    print[ P_OrbEn ] 0
    print[ P_Cartesian ] 0
end
*xyz 0 1
 C        1.0292170000     0.1502700000     0.0232370000 
 C        2.5142230000     0.0681460000    -0.0040120000 
 N        3.2530290000     1.1797720000    -0.0648340000 
 N        4.4958720000     0.7479970000    -0.0471380000 
 O        5.5272510000     1.6268030000    -0.1551490000 
 C        4.6309100000    -0.5811760000     0.0065960000 
 C        3.3382860000    -1.0683780000     0.0314810000 
 H        0.7129250000     1.1881200000    -0.0801050000 
 H        0.6249820000    -0.2400370000     0.9608890000 
 H        0.5857520000    -0.4274800000    -0.7912620000 
 H        5.2455590000     2.3821120000     0.3787720000 
 H        5.5995820000    -1.0518550000     0.0209550000 
 H        3.0399220000    -2.1032930000     0.0753710000 
*
