! RI PBE def2-SVP def2-SVP/J NBO PAL2
% maxcore 2000
% output
    # printlevel mini
    print[ P_Basis ] 0
    print[ P_SCFInfo ] 1
    print[ P_SCFIterInfo ] 1
    print[ P_OrbEn ] 0
    print[ P_Cartesian ] 0
end
*xyz 0 1
 C        0.8731960000     0.0228770000    -0.0120650000 
 C        2.3524870000     0.1371620000    -0.0078790000 
 C        3.1609680000     1.2269350000    -0.0062100000 
 C        4.5246350000     0.7613080000    -0.0021770000 
 N        5.6812920000     1.2747520000     0.0007800000 
 O        4.4567730000    -0.6344050000    -0.0015940000 
 N        3.1244070000    -0.9610230000    -0.0045880000 
 H        0.4229390000     1.0137290000    -0.0157030000 
 H        0.5196810000    -0.5135590000     0.8721720000 
 H        0.5249410000    -0.5176640000    -0.8958870000 
 H        2.8537620000     2.2585540000    -0.0076570000 
 H        5.6128410000     2.2860920000     0.0001210000 
 H        2.9202770000    -1.9406580000    -0.0065130000 
*
