! RI PBE def2-SVP def2-SVP/J NBO PAL2
% maxcore 2000
% output
    # printlevel mini
    print[ P_Basis ] 0
    print[ P_SCFInfo ] 1
    print[ P_SCFIterInfo ] 1
    print[ P_OrbEn ] 0
    print[ P_Cartesian ] 0
end
*xyz 0 1
 C        1.0444500000    -0.0555190000     0.2364890000 
 C        2.5363080000     0.0946540000     0.0528470000 
 C        3.2676400000     1.1718270000     0.8844920000 
 C        4.1141670000     0.0025990000     1.3862040000 
 O        3.2772950000    -0.9489820000     0.7027550000 
 C        2.8741580000     0.1582650000    -1.3780950000 
 N        3.1372180000     0.2284830000    -2.4951900000 
 H        0.8158270000    -0.0882720000     1.3025520000 
 H        0.6992670000    -0.9807050000    -0.2279980000 
 H        0.5156990000     0.7829690000    -0.2216850000 
 H        2.6216080000     1.6224080000     1.6369100000 
 H        3.7815820000     1.9479120000     0.3220690000 
 H        4.1236520000    -0.1732570000     2.4639130000 
 H        5.1383210000    -0.0191810000     1.0028470000 
*
