! RI PBE def2-SVP def2-SVP/J NBO PAL2
% maxcore 2000
% output
    # printlevel mini
    print[ P_Basis ] 0
    print[ P_SCFInfo ] 1
    print[ P_SCFIterInfo ] 1
    print[ P_OrbEn ] 0
    print[ P_Cartesian ] 0
end
*xyz 0 1
 C        0.8287870000    -0.1578070000    -0.0301680000 
 C        2.3165320000    -0.1086620000    -0.0306170000 
 C        3.1163300000     0.9953110000    -0.0332210000 
 N        2.8603580000     2.3338230000    -0.0360480000 
 O        4.4205080000     0.6611090000    -0.0327460000 
 C        4.4793100000    -0.7077010000    -0.0297300000 
 C        3.2313400000    -1.2149140000    -0.0283960000 
 H        0.3924150000     0.8441770000    -0.0317920000 
 H        0.4373200000    -0.6743110000     0.8518400000 
 H        0.4368480000    -0.6774050000    -0.9101500000 
 H        1.9202250000     2.6711810000    -0.0376000000 
 H        3.6176340000     2.9873440000    -0.0382880000 
 H        5.4670330000    -1.1339910000    -0.0289530000 
 H        2.9724600000    -2.2630550000    -0.0260410000 
*
