! RI PBE def2-SVP def2-SVP/J NBO PAL2
% maxcore 2000
% output
    # printlevel mini
    print[ P_Basis ] 0
    print[ P_SCFInfo ] 1
    print[ P_SCFIterInfo ] 1
    print[ P_OrbEn ] 0
    print[ P_Cartesian ] 0
end
*xyz 0 1
 C        0.7918550000    -0.0424470000    -0.0111340000 
 C        2.2996950000    -0.0334250000    -0.0495250000 
 C        3.0794970000     1.0292310000     0.7525090000 
 C        4.1469230000    -0.0370370000     1.0604770000 
 O        5.1465920000    -0.1090130000     0.0636800000 
 C        3.0854990000    -1.1053220000     0.7574310000 
 N        3.5566090000    -2.3449190000     0.2130950000 
 H        0.3692390000     0.8324800000    -0.5134180000 
 H        0.4264080000    -0.0407540000     1.0208320000 
 H        0.3864270000    -0.9303580000    -0.5061060000 
 H        2.6614570000    -0.0413400000    -1.0820410000 
 H        2.5419180000     1.3292820000     1.6563710000 
 H        3.4191270000     1.9238540000     0.2264380000 
 H        4.5960000000    -0.0456350000     2.0599160000 
 H        5.7048380000     0.6681970000     0.1387700000 
 H        2.5317050000    -1.3075790000     1.6821690000 
 H        4.1711700000    -2.1673490000    -0.5717080000 
 H        2.7916310000    -2.9268670000    -0.1025770000 
*
