! RI PBE def2-SVP def2-SVP/J NBO PAL2
% maxcore 2000
% output
    # printlevel mini
    print[ P_Basis ] 0
    print[ P_SCFInfo ] 1
    print[ P_SCFIterInfo ] 1
    print[ P_OrbEn ] 0
    print[ P_Cartesian ] 0
end
*xyz 0 1
 C        1.0911140000     0.1268950000    -0.0197280000 
 C        2.5542800000    -0.0324520000    -0.0189610000 
 C        3.3158650000    -1.1323300000    -0.0195540000 
 C        4.7111830000    -0.6669610000    -0.0181920000 
 O        5.7461040000    -1.2776050000    -0.0181630000 
 C        4.5570910000     0.8563790000    -0.0169000000 
 N        3.3389690000     1.2016860000    -0.0172970000 
 H        0.5743120000    -0.8316650000    -0.0208950000 
 H        0.7844030000     0.7092920000    -0.8943910000 
 H        0.7833130000     0.7077660000     0.8555630000 
 H        3.0037690000    -2.1646010000    -0.0207480000 
 H        5.3837980000     1.5600060000    -0.0157340000 
*
