! RI PBE def2-SVP def2-SVP/J NBO PAL2
% maxcore 2000
% output
    # printlevel mini
    print[ P_Basis ] 0
    print[ P_SCFInfo ] 1
    print[ P_SCFIterInfo ] 1
    print[ P_OrbEn ] 0
    print[ P_Cartesian ] 0
end
*xyz 0 1
 C        0.9847850000     0.0654500000    -0.0313730000 
 C        2.4881760000     0.0634870000     0.1043150000 
 C        3.0797390000     1.2706030000     0.8353680000 
 C        4.3644080000     0.7295880000     1.4342500000 
 O        5.2644060000     1.3635670000     1.9117460000 
 C        4.3011220000    -0.7886580000     1.3033880000 
 N        2.9621990000    -1.1149790000     0.8431050000 
 H        0.6457790000     0.9177330000    -0.6234900000 
 H        0.5078620000     0.1322870000     0.9521780000 
 H        0.6409200000    -0.8497010000    -0.5177420000 
 H        2.9341090000     0.0112180000    -0.8978460000 
 H        2.4261810000     1.5741230000     1.6635580000 
 H        3.2716800000     2.1539150000     0.2246830000 
 H        4.5623760000    -1.2807200000     2.2413460000 
 H        5.0525540000    -1.0902670000     0.5614740000 
 H        2.3556960000    -1.2600560000     1.6430620000 
*
