! RI PBE def2-SVP def2-SVP/J NBO PAL2
% maxcore 2000
% output
    # printlevel mini
    print[ P_Basis ] 0
    print[ P_SCFInfo ] 1
    print[ P_SCFIterInfo ] 1
    print[ P_OrbEn ] 0
    print[ P_Cartesian ] 0
end
*xyz 0 1
 C        0.9432400000     0.0397240000    -0.0384340000 
 C        2.4515620000     0.0069500000     0.0260290000 
 C        3.1013200000     1.1871340000     0.7506130000 
 C        4.4983240000     0.6779290000     1.0663740000 
 O        5.3500450000     1.0672280000     0.0004870000 
 C        4.3126670000    -0.8597680000     1.1403280000 
 N        2.9438580000    -1.1719410000     0.7383210000 
 H        0.5957380000     0.9127820000    -0.5947200000 
 H        0.5124210000     0.0932410000     0.9675270000 
 H        0.5541660000    -0.8548230000    -0.5290740000 
 H        2.8549420000    -0.0332990000    -0.9938110000 
 H        2.5530740000     1.3844490000     1.6787330000 
 H        3.1414930000     2.1110110000     0.1707680000 
 H        4.8807040000     1.0859160000     2.0103380000 
 H        6.2023470000     0.6408090000     0.1202770000 
 H        4.5209210000    -1.2596430000     2.1353960000 
 H        5.0226130000    -1.3231920000     0.4447470000 
 H        2.3719570000    -1.3056870000     1.5648820000 
*
