! RI PBE def2-SVP def2-SVP/J NBO PAL2
% maxcore 2000
% output
    # printlevel mini
    print[ P_Basis ] 0
    print[ P_SCFInfo ] 1
    print[ P_SCFIterInfo ] 1
    print[ P_OrbEn ] 0
    print[ P_Cartesian ] 0
end
*xyz 0 1
 C        0.9102290000    -0.0207820000    -0.0768220000 
 C        2.3933210000     0.0522070000    -0.0712900000 
 C        3.2341600000     1.1434200000    -0.0675980000 
 C        4.5634350000     0.6515550000    -0.0629190000 
 O        5.7186180000     1.3695100000    -0.0582650000 
 C        4.5086680000    -0.7164330000    -0.0638340000 
 N        3.1760650000    -1.0575670000    -0.0689670000 
 H        0.4899930000     0.9848760000    -0.0779210000 
 H        0.5214070000    -0.5402930000     0.8050340000 
 H        0.5279600000    -0.5394850000    -0.9620120000 
 H        2.9216220000     2.1776800000    -0.0682210000 
 H        5.4968130000     2.3028120000    -0.0585260000 
 H        5.2944680000    -1.4522890000    -0.0613050000 
 H        2.8311320000    -1.9994210000    -0.0707440000 
*
