! RI PBE def2-SVP def2-SVP/J NBO PAL2
% maxcore 2000
% output
    # printlevel mini
    print[ P_Basis ] 0
    print[ P_SCFInfo ] 1
    print[ P_SCFIterInfo ] 1
    print[ P_OrbEn ] 0
    print[ P_Cartesian ] 0
end
*xyz 0 1
 C        1.1022470000    -0.1853130000     0.2256420000 
 C        2.5870830000    -0.1498570000     0.0169270000 
 C        3.2971500000    -0.7697310000    -1.1535800000 
 C        2.5624690000    -1.4320350000    -2.2530460000 
 O        2.8501810000    -2.5163010000    -2.6856550000 
 N        3.1318800000     0.6692260000    -1.0244400000 
 C        4.3310370000     1.4217050000    -0.7300620000 
 H        0.7979270000    -1.1270810000     0.6883440000 
 H        0.5654130000    -0.0703030000    -0.7155950000 
 H        0.7968710000     0.6291070000     0.8875390000 
 H        3.1767240000    -0.2052520000     0.9338810000 
 H        4.2725420000    -1.2039280000    -0.9415610000 
 H        1.7123850000    -0.8498660000    -2.6648190000 
 H        4.8747910000     1.6149940000    -1.6567410000 
 H        5.0042240000     0.9009500000    -0.0320820000 
 H        4.0520850000     2.3815740000    -0.2902820000 
*
