! RI PBE def2-SVP def2-SVP/J NBO PAL2
% maxcore 2000
% output
    # printlevel mini
    print[ P_Basis ] 0
    print[ P_SCFInfo ] 1
    print[ P_SCFIterInfo ] 1
    print[ P_OrbEn ] 0
    print[ P_Cartesian ] 0
end
*xyz 0 1
 C        0.9838070000     0.0912430000     0.1684580000 
 C        2.4856310000     0.0326480000     0.0184020000 
 C        3.3142680000     1.1543910000     0.6871820000 
 C        3.9502120000     0.0355710000     1.5161910000 
 O        4.8008510000    -0.0470330000     2.3615880000 
 N        3.1708920000    -0.9028600000     0.9091610000 
 C        3.1402570000    -2.3278560000     1.0196930000 
 H        0.5716720000     0.8957180000    -0.4453910000 
 H        0.7057470000     0.2740520000     1.2096050000 
 H        0.5147660000    -0.8425840000    -0.1523240000 
 H        2.7596250000    -0.1294100000    -1.0316620000 
 H        2.7354480000     1.8704440000     1.2718030000 
 H        4.0130810000     1.6828800000     0.0391170000 
 H        3.8458330000    -2.6160950000     1.7998680000 
 H        3.4384530000    -2.8095510000     0.0821910000 
 H        2.1457770000    -2.6901780000     1.2970180000 
*
