! RI PBE def2-SVP def2-SVP/J NBO PAL2
% maxcore 2000
% output
    # printlevel mini
    print[ P_Basis ] 0
    print[ P_SCFInfo ] 1
    print[ P_SCFIterInfo ] 1
    print[ P_OrbEn ] 0
    print[ P_Cartesian ] 0
end
*xyz 0 1
 C        0.9055640000    -0.0835420000     0.1546700000 
 C        2.4014380000     0.0099110000     0.0025480000 
 C        3.1642910000     1.1598930000     0.6971810000 
 C        4.0396570000     0.0755870000     1.3423720000 
 O        5.0522250000     0.0304530000     1.9751280000 
 N        3.1803740000    -0.8846100000     0.8618390000 
 O        3.4504340000    -2.2036840000     0.6038690000 
 H        0.4105500000     0.6883030000    -0.4391870000 
 H        0.6139270000     0.0429400000     1.2001240000 
 H        0.5400060000    -1.0534340000    -0.1916530000 
 H        2.6999620000    -0.0927820000    -1.0468800000 
 H        2.5774420000     1.7439560000     1.4058190000 
 H        3.7228230000     1.8186910000     0.0336240000 
 H        3.0207970000    -2.7014930000     1.3090470000 
*
