! RI PBE def2-SVP def2-SVP/J NBO PAL2
% maxcore 2000
% output
    # printlevel mini
    print[ P_Basis ] 0
    print[ P_SCFInfo ] 1
    print[ P_SCFIterInfo ] 1
    print[ P_OrbEn ] 0
    print[ P_Cartesian ] 0
end
*xyz 0 1
 C        0.8330460000    -0.0493660000    -0.3132930000 
 C        2.1310920000     0.0724040000    -0.0377290000 
 C        2.8363030000     1.3622600000     0.2416860000 
 C        4.2588210000     1.2077300000    -0.2472800000 
 O        4.9066950000     0.0981210000     0.3612320000 
 N        4.2545660000    -1.1034230000     0.2853560000 
 C        2.9956580000    -1.0946040000     0.0564380000 
 H        0.1824280000     0.8158200000    -0.3728200000 
 H        0.3843720000    -1.0222010000    -0.4818300000 
 H        2.8431730000     1.5558780000     1.3199040000 
 H        2.3438180000     2.2061630000    -0.2461950000 
 H        4.8841540000     2.0654880000     0.0010710000 
 H        4.2703610000     1.0614140000    -1.3357100000 
 H        2.5562130000    -2.0861660000    -0.0105300000 
*
