! RI PBE def2-SVP def2-SVP/J NBO PAL2
% maxcore 2000
% output
    # printlevel mini
    print[ P_Basis ] 0
    print[ P_SCFInfo ] 1
    print[ P_SCFIterInfo ] 1
    print[ P_OrbEn ] 0
    print[ P_Cartesian ] 0
end
*xyz 0 1
 C        0.9710850000     0.1240320000    -0.0432650000 
 C        2.4456380000     0.0045190000    -0.0434880000 
 C        3.2437910000    -1.0614620000    -0.0423180000 
 C        4.6493630000    -0.5497810000    -0.0438320000 
 O        5.6602200000    -1.1844980000    -0.0424970000 
 N        4.6129170000     0.9028130000    -0.0445500000 
 C        3.3733670000     1.1878740000    -0.0448990000 
 H        0.4849890000    -0.8511010000    -0.0420320000 
 H        0.6295060000     0.6816610000    -0.9214060000 
 H        0.6299620000     0.6836500000     0.8337850000 
 H        2.9898540000    -2.1107800000    -0.0408600000 
 H        3.0237170000     2.2187730000    -0.0457470000 
*
