! RI PBE def2-SVP def2-SVP/J NBO PAL2
% maxcore 2000
% output
    # printlevel mini
    print[ P_Basis ] 0
    print[ P_SCFInfo ] 1
    print[ P_SCFIterInfo ] 1
    print[ P_OrbEn ] 0
    print[ P_Cartesian ] 0
end
*xyz 0 1
 C        0.8587260000    -0.0993390000    -0.0402660000 
 C        2.3460900000     0.0031400000    -0.0498450000 
 C        3.0299200000     1.1413310000    -0.0637720000 
 C        4.5168600000     1.1495600000    -0.0726310000 
 O        5.1334200000    -0.1524270000    -0.0639840000 
 N        4.4018110000    -1.3031640000    -0.0500180000 
 C        3.1307330000    -1.2283410000    -0.0436590000 
 H        0.3925180000     0.8865200000    -0.0459650000 
 H        0.5101010000    -0.6396100000     0.8454220000 
 H        0.4998360000    -0.6546190000    -0.9124720000 
 H        2.5321130000     2.1065750000    -0.0692880000 
 H        4.9052680000     1.6876700000     0.8023220000 
 H        4.8948660000     1.6712130000    -0.9620090000 
 H        2.6346580000    -2.1944090000    -0.0325250000 
*
