! RI PBE def2-SVP def2-SVP/J NBO PAL2
% maxcore 2000
% output
    # printlevel mini
    print[ P_Basis ] 0
    print[ P_SCFInfo ] 1
    print[ P_SCFIterInfo ] 1
    print[ P_OrbEn ] 0
    print[ P_Cartesian ] 0
end
*xyz 0 1
 C        0.9971810000     0.0490320000    -0.0101030000 
 C        2.5247030000     0.0520120000     0.0190210000 
 C        3.0843210000     0.2776350000    -1.3845020000 
 C        3.1066990000    -1.1992940000     0.6948320000 
 O        3.8179330000    -0.7445870000     1.8604600000 
 N        3.7290020000     0.6245540000     1.9503210000 
 C        3.0472910000     1.0788070000     0.9845310000 
 H        0.6291410000    -0.7510790000    -0.6585490000 
 H        0.6108950000     0.9951640000    -0.3978960000 
 H        0.5847620000    -0.1029520000     0.9894790000 
 H        2.7567240000    -0.5185910000    -2.0589010000 
 H        4.1761420000     0.2913920000    -1.3754320000 
 H        2.7349440000     1.2274380000    -1.7975130000 
 H        3.8149370000    -1.7300330000     0.0528270000 
 H        2.3310780000    -1.8963580000     1.0232290000 
 H        2.8833370000     2.1475400000     0.9109260000 
*
