! RI PBE def2-SVP def2-SVP/J NBO PAL2
% maxcore 2000
% output
    # printlevel mini
    print[ P_Basis ] 0
    print[ P_SCFInfo ] 1
    print[ P_SCFIterInfo ] 1
    print[ P_OrbEn ] 0
    print[ P_Cartesian ] 0
end
*xyz 0 1
 C        0.8349800000    -0.0218220000    -0.1375560000 
 C        2.3265820000    -0.0019690000     0.1841240000 
 C        3.0293610000     1.2595780000    -0.3030780000 
 C        3.4659350000     1.0282790000    -1.7304640000 
 O        4.3690650000    -0.0619890000    -1.8286620000 
 N        3.9647410000    -1.2367940000    -1.2443460000 
 C        3.0312420000    -1.1980560000    -0.3807510000 
 H        0.3201840000     0.7809800000     0.3961100000 
 H        0.3770430000    -0.9699850000     0.1541630000 
 H        0.6608180000     0.1128450000    -1.2077680000 
 H        2.4304090000    -0.0771860000     1.2735410000 
 H        3.9119380000     1.4681520000     0.3073700000 
 H        2.3687970000     2.1286360000    -0.2399630000 
 H        4.0087430000     1.8778150000    -2.1464460000 
 H        2.5976540000     0.8219940000    -2.3716560000 
 H        2.7750290000    -2.1800680000     0.0117830000 
*
