! RI PBE def2-SVP def2-SVP/J NBO PAL2
% maxcore 2000
% output
    # printlevel mini
    print[ P_Basis ] 0
    print[ P_SCFInfo ] 1
    print[ P_SCFIterInfo ] 1
    print[ P_OrbEn ] 0
    print[ P_Cartesian ] 0
end
*xyz 0 1
 C        1.0960720000    -0.0359000000    -0.0299830000 
 C        2.5989890000     0.0119990000     0.0870800000 
 C        3.1818950000     1.1779100000     0.8788990000 
 C        4.4987890000     0.5952820000     1.3690390000 
 O        5.5087840000     1.1760330000     1.6828920000 
 N        4.3260740000    -0.7606240000     1.3598480000 
 N        3.1176930000    -1.1878200000     0.7758040000 
 H        0.7269480000     0.8258340000    -0.5887470000 
 H        0.6252830000    -0.0196000000     0.9581240000 
 H        0.7750350000    -0.9408830000    -0.5507220000 
 H        3.0441870000     0.0134990000    -0.9152580000 
 H        2.5581940000     1.4357960000     1.7428220000 
 H        3.3611910000     2.0832950000     0.3014630000 
 H        5.1178110000    -1.3806070000     1.3012320000 
 H        2.4795540000    -1.4052220000     1.5394180000 
*
