! RI PBE def2-SVP def2-SVP/J NBO PAL2
% maxcore 2000
% output
    # printlevel mini
    print[ P_Basis ] 0
    print[ P_SCFInfo ] 1
    print[ P_SCFIterInfo ] 1
    print[ P_OrbEn ] 0
    print[ P_Cartesian ] 0
end
*xyz 0 1
 C        0.9422500000     0.0372840000     0.0808300000 
 C        2.4239330000     0.1233990000     0.0775710000 
 C        3.2484200000     1.2083770000     0.0774420000 
 C        4.6239910000     0.7520310000     0.0735690000 
 O        5.6927960000     1.3362290000     0.0720730000 
 N        4.4948540000    -0.6342170000     0.0716340000 
 N        3.1783100000    -0.9981350000     0.0740510000 
 H        0.5137810000     1.0380280000     0.0831740000 
 H        0.5765010000    -0.4914760000     0.9652860000 
 H        0.5724630000    -0.4890640000    -0.8033830000 
 H        2.9484550000     2.2425130000     0.0797920000 
 H        5.2353330000    -1.3110810000     0.0688400000 
 H        2.8903230000    -1.9567870000     0.0731220000 
*
