! RI PBE def2-SVP def2-SVP/J NBO PAL2
% maxcore 2000
% output
    # printlevel mini
    print[ P_Basis ] 0
    print[ P_SCFInfo ] 1
    print[ P_SCFIterInfo ] 1
    print[ P_OrbEn ] 0
    print[ P_Cartesian ] 0
end
*xyz 0 1
 C        1.0044550000    -0.0507230000     0.0074880000 
 C        2.4860220000    -0.1522170000     0.0115970000 
 N        3.2071800000     0.9367280000     0.0153930000 
 O        4.5357190000     0.5005220000     0.0186140000 
 C        4.5437650000    -0.8265250000     0.0164830000 
 O        5.7242570000    -1.4306160000     0.0189630000 
 C        3.2842400000    -1.3258080000     0.0119660000 
 H        0.7033790000     0.9964120000     0.0083050000 
 H        0.5811110000    -0.5405600000     0.8873970000 
 H        0.5862050000    -0.5377170000    -0.8764260000 
 H        6.4186390000    -0.7613100000     0.0221230000 
 H        2.9793370000    -2.3574960000     0.0093960000 
*
