! RI PBE def2-SVP def2-SVP/J NBO PAL2
% maxcore 2000
% output
    # printlevel mini
    print[ P_Basis ] 0
    print[ P_SCFInfo ] 1
    print[ P_SCFIterInfo ] 1
    print[ P_OrbEn ] 0
    print[ P_Cartesian ] 0
end
*xyz 0 1
 C        0.8356890000     0.6638360000    -0.5702200000 
 C        2.1072470000     0.0169500000    -0.1127480000 
 C        2.7903410000    -1.0288610000    -0.9020850000 
 N        3.3259060000     0.3180730000    -0.8486310000 
 C        4.5381780000     0.4893500000    -0.0710880000 
 C        4.8379340000     1.9613390000     0.1209880000 
 O        3.8010780000     2.6470170000     0.7880480000 
 H       -0.0328580000     0.0857670000    -0.2439850000 
 H        0.8141830000     0.7362590000    -1.6589880000 
 H        0.7323080000     1.6727840000    -0.1589460000 
 H        2.2250860000    -0.0657670000     0.9668970000 
 H        2.3860910000    -1.3371810000    -1.8612960000 
 H        3.3236960000    -1.8045790000    -0.3575160000 
 H        5.3690600000     0.0311480000    -0.6189620000 
 H        4.4683970000    -0.0095750000     0.9097100000 
 H        5.0404880000     2.4174580000    -0.8568970000 
 H        5.7330960000     2.0760050000     0.7371430000 
 H        3.0331870000     2.6269580000     0.2100650000 
*
