! RI PBE def2-SVP def2-SVP/J NBO PAL2
% maxcore 2000
% output
    # printlevel mini
    print[ P_Basis ] 0
    print[ P_SCFInfo ] 1
    print[ P_SCFIterInfo ] 1
    print[ P_OrbEn ] 0
    print[ P_Cartesian ] 0
end
*xyz 0 1
 C        0.8431000000     0.4114830000    -0.5733960000 
 C        2.1808450000    -0.0337600000    -0.0673520000 
 C        2.9022530000    -1.1919420000    -0.6412950000 
 N        3.3309970000     0.1621470000    -0.9338180000 
 C        4.5535090000     0.5895100000    -0.2993470000 
 C        4.6826650000     2.0918410000    -0.3281170000 
 O        5.3628270000     2.7190590000     0.4348580000 
 H        0.0384710000    -0.1161700000    -0.0548870000 
 H        0.7556990000     0.2112790000    -1.6426220000 
 H        0.7004950000     1.4837050000    -0.4159400000 
 H        2.3600200000     0.1388420000     0.9940290000 
 H        2.4721120000    -1.7381220000    -1.4748460000 
 H        3.5203630000    -1.7850640000     0.0282970000 
 H        5.4044220000     0.1924930000    -0.8695880000 
 H        4.6723450000     0.2446710000     0.7395920000 
 H        4.1043560000     2.5870470000    -1.1372100000 
*
