! RI PBE def2-SVP def2-SVP/J NBO PAL2
% maxcore 2000
% output
    # printlevel mini
    print[ P_Basis ] 0
    print[ P_SCFInfo ] 1
    print[ P_SCFIterInfo ] 1
    print[ P_OrbEn ] 0
    print[ P_Cartesian ] 0
end
*xyz 0 1
 C        1.0573940000     0.0433820000    -0.6450020000 
 C        2.4910140000     0.3394520000    -0.3319820000 
 C        3.5425980000    -0.7044410000    -0.3105850000 
 N        3.4621570000     0.2187200000    -1.4167680000 
 C        4.4780790000     1.1845380000    -1.5319970000 
 N        4.0535070000     2.2974200000    -2.1942440000 
 O        5.6013980000     1.0456220000    -1.1053640000 
 H        0.5104660000    -0.2076510000     0.2674810000 
 H        0.9834250000    -0.7979330000    -1.3363360000 
 H        0.5673420000     0.9068310000    -1.1025000000 
 H        2.6612860000     1.1755980000     0.3436810000 
 H        3.2790550000    -1.7292650000    -0.5506530000 
 H        4.3831280000    -0.5770350000     0.3629290000 
 H        3.2275870000     2.2341860000    -2.7622030000 
 H        4.7651740000     2.9508870000    -2.4699680000 
*
