! RI PBE def2-SVP def2-SVP/J NBO PAL2
% maxcore 2000
% output
    # printlevel mini
    print[ P_Basis ] 0
    print[ P_SCFInfo ] 1
    print[ P_SCFIterInfo ] 1
    print[ P_OrbEn ] 0
    print[ P_Cartesian ] 0
end
*xyz 0 1
 C        0.9560880000     0.0376830000     0.0140780000 
 C        2.4632450000     0.0215330000    -0.0190410000 
 C        3.2451720000     1.0796490000     0.7790050000 
 N        4.2022170000     0.0346490000     1.1790090000 
 C        3.2308840000    -1.0125560000     0.8290670000 
 C        3.8281290000    -2.2239790000     0.1522250000 
 O        2.8434620000    -3.1315350000    -0.2994720000 
 H        0.5582970000     0.9110850000    -0.5104890000 
 H        0.5838760000     0.0705630000     1.0423440000 
 H        0.5460180000    -0.8543170000    -0.4658890000 
 H        2.8235020000    -0.0199190000    -1.0508970000 
 H        2.6443380000     1.4767800000     1.6088690000 
 H        3.6856130000     1.9168310000     0.2306670000 
 H        4.5031750000     0.0570710000     2.1444760000 
 H        2.6106210000    -1.3373630000     1.6834410000 
 H        4.5453710000    -2.7116710000     0.8290030000 
 H        4.3840750000    -1.9030870000    -0.7313950000 
 H        2.3766190000    -3.4778180000     0.4653190000 
*
