! RI PBE def2-SVP def2-SVP/J NBO PAL2
% maxcore 2000
% output
    # printlevel mini
    print[ P_Basis ] 0
    print[ P_SCFInfo ] 1
    print[ P_SCFIterInfo ] 1
    print[ P_OrbEn ] 0
    print[ P_Cartesian ] 0
end
*xyz 0 1
 C        1.1155730000     0.0359710000    -0.2262710000 
 C        2.6071390000     0.0662480000     0.0229450000 
 C        3.0944060000     1.1525670000     0.9659650000 
 N        4.4479270000     0.7255900000     1.3080510000 
 C        4.5213330000    -0.7318510000     1.2360120000 
 C        3.1588210000    -1.1870600000     0.7014740000 
 O        3.1955510000    -2.3414610000    -0.1004930000 
 H        0.7724630000     0.9410870000    -0.7335710000 
 H        0.5662920000    -0.0489890000     0.7163720000 
 H        0.8470880000    -0.8212650000    -0.8475180000 
 H        3.1394160000     0.1824530000    -0.9319760000 
 H        2.4189610000     1.2045540000     1.8363640000 
 H        3.1022530000     2.1418870000     0.4988130000 
 H        4.7570530000     1.0890340000     2.1959370000 
 H        4.7506460000    -1.1982620000     2.1995200000 
 H        5.3074760000    -1.0487180000     0.5355460000 
 H        2.4982150000    -1.4475400000     1.5359040000 
 H        3.7973750000    -2.1764650000    -0.8328730000 
*
