! RI PBE def2-SVP def2-SVP/J NBO PAL2
% maxcore 2000
% output
    # printlevel mini
    print[ P_Basis ] 0
    print[ P_SCFInfo ] 1
    print[ P_SCFIterInfo ] 1
    print[ P_OrbEn ] 0
    print[ P_Cartesian ] 0
end
*xyz 0 1
 C        1.1343080000    -0.0531800000     0.2289190000 
 C        2.4437040000     0.0158380000     0.0327440000 
 C        3.3562650000     1.2025680000     0.0232520000 
 N        4.5027380000     0.7332980000    -0.7549510000 
 C        4.6924750000    -0.6787680000    -0.4766460000 
 C        3.2836930000    -1.1863070000    -0.2424460000 
 O        2.9238630000    -2.3336830000    -0.2578450000 
 H        0.5247910000     0.8238340000     0.4164690000 
 H        0.6433740000    -1.0203010000     0.2007040000 
 H        3.6179660000     1.4695660000     1.0619260000 
 H        2.9052670000     2.0823070000    -0.4416870000 
 H        5.3325000000     1.2819030000    -0.5837300000 
 H        5.2689960000    -0.8961570000     0.4404290000 
 H        5.1676510000    -1.2094280000    -1.3040290000 
*
