! RI PBE def2-SVP def2-SVP/J NBO PAL2
% maxcore 2000
% output
    # printlevel mini
    print[ P_Basis ] 0
    print[ P_SCFInfo ] 1
    print[ P_SCFIterInfo ] 1
    print[ P_OrbEn ] 0
    print[ P_Cartesian ] 0
end
*xyz 0 1
 C        0.9793610000    -0.0418250000     0.2299270000 
 C        2.4496600000    -0.0616400000    -0.1572470000 
 C        2.6450140000    -0.0920030000    -1.6587080000 
 N        3.2835150000     0.9622500000     0.5359840000 
 C        3.8972110000    -0.0261200000     1.4452630000 
 C        3.2310160000    -1.1225240000     0.6281030000 
 O        3.2934090000    -2.3113590000     0.5911420000 
 H        0.5029620000     0.8620990000    -0.1614200000 
 H        0.8484400000    -0.0585170000     1.3151720000 
 H        0.4595930000    -0.9066890000    -0.1874010000 
 H        2.1813340000     0.7856310000    -2.1169740000 
 H        2.1888110000    -0.9883530000    -2.0850300000 
 H        3.7064320000    -0.0851750000    -1.9100560000 
 H        2.7368430000     1.6680260000     1.0118200000 
 H        3.5436580000    -0.0121790000     2.4837160000 
 H        4.9908410000    -0.0315010000     1.4482090000 
*
