! RI PBE def2-SVP def2-SVP/J NBO PAL2
% maxcore 2000
% output
    # printlevel mini
    print[ P_Basis ] 0
    print[ P_SCFInfo ] 1
    print[ P_SCFIterInfo ] 1
    print[ P_OrbEn ] 0
    print[ P_Cartesian ] 0
end
*xyz 0 1
 C        0.8731530000     0.1005450000    -0.2579650000 
 C        2.3635260000     0.0846500000    -0.0483190000 
 C        2.7485340000     0.1182330000     1.4152540000 
 N        4.1841820000    -0.0383830000     1.6444040000 
 C        3.2007080000    -0.7011640000    -1.0352520000 
 C        3.2255240000     0.8012950000    -1.0454340000 
 O        4.3539420000     1.5083120000    -0.6671080000 
 H        0.4027280000    -0.7967520000     0.1582920000 
 H        0.6272560000     0.1394410000    -1.3211630000 
 H        0.4153780000     0.9723840000     0.2205260000 
 H        2.1505800000    -0.6329920000     1.9527700000 
 H        2.4583270000     1.0941770000     1.8201700000 
 H        4.4627770000    -1.0047900000     1.5301370000 
 H        4.4224910000     0.2291650000     2.5904800000 
 H        2.6877540000    -1.2359500000    -1.8269300000 
 H        4.1045350000    -1.1842640000    -0.6819750000 
 H        2.7162630000     1.2990470000    -1.8643270000 
 H        4.6553430000     1.1070380000     0.1697610000 
*
