! RI PBE def2-SVP def2-SVP/J NBO PAL2
% maxcore 2000
% output
    # printlevel mini
    print[ P_Basis ] 0
    print[ P_SCFInfo ] 1
    print[ P_SCFIterInfo ] 1
    print[ P_OrbEn ] 0
    print[ P_Cartesian ] 0
end
*xyz 0 1
 C        0.9053510000    -0.0110520000     0.3202840000 
 C        2.3605800000     0.0991110000    -0.0717320000 
 C        3.2337150000     1.1502490000     0.6553490000 
 N        4.0436240000     0.0477140000     1.1531110000 
 C        5.2050310000    -0.0014860000     1.9935100000 
 C        3.3103460000    -0.9318070000     0.5570970000 
 O        3.4082850000    -2.1307870000     0.5642340000 
 H        0.3228630000     0.8260910000    -0.0719350000 
 H        0.7917130000    -0.0257110000     1.4074610000 
 H        0.4770590000    -0.9356630000    -0.0718210000 
 H        2.4780100000     0.1355010000    -1.1576560000 
 H        2.7116210000     1.7079180000     1.4401260000 
 H        3.7746350000     1.8469490000     0.0074220000 
 H        5.4833010000     1.0142150000     2.2756390000 
 H        6.0501080000    -0.4619780000     1.4742440000 
 H        5.0099370000    -0.5741650000     2.9044670000 
*
