! RI PBE def2-SVP def2-SVP/J NBO PAL2
% maxcore 2000
% output
    # printlevel mini
    print[ P_Basis ] 0
    print[ P_SCFInfo ] 1
    print[ P_SCFIterInfo ] 1
    print[ P_OrbEn ] 0
    print[ P_Cartesian ] 0
end
*xyz 0 1
 C        1.0256380000    -0.0894930000     0.0145910000 
 C        2.5361590000    -0.0448350000     0.0839940000 
 C        3.1671410000     1.0415470000     0.9452830000 
 N        4.5078810000     0.5219210000     1.1901210000 
 C        4.3618180000    -0.8900980000     1.4866400000 
 C        3.1618330000    -1.3070790000     0.6562720000 
 O        2.7647680000    -2.4297280000     0.5077500000 
 H        0.6258310000     0.7949510000    -0.4857950000 
 H        0.5894950000    -0.1392780000     1.0155250000 
 H        0.6991870000    -0.9741870000    -0.5340880000 
 H        2.9571880000     0.0417810000    -0.9275570000 
 H        2.5706500000     1.1638590000     1.8665960000 
 H        3.2153760000     2.0111690000     0.4456400000 
 H        4.9968410000     1.0290890000     1.9134680000 
 H        4.1124360000    -1.1172940000     2.5377120000 
 H        5.2453660000    -1.4755260000     1.2216480000 
*
