! RI PBE def2-SVP def2-SVP/J NBO PAL2
% maxcore 2000
% output
    # printlevel mini
    print[ P_Basis ] 0
    print[ P_SCFInfo ] 1
    print[ P_SCFIterInfo ] 1
    print[ P_OrbEn ] 0
    print[ P_Cartesian ] 0
end
*xyz 0 1
 C        1.0426750000    -0.0131870000     0.1065770000 
 C        2.3546410000    -0.0807320000    -0.0858350000 
 C        3.1606130000    -1.3478420000    -0.0857870000 
 N        4.1540870000    -1.4112930000    -1.1493940000 
 C        4.9427640000    -0.1916070000    -1.1539630000 
 C        4.0781570000     1.0481670000    -1.2312500000 
 O        3.0807370000     1.0695040000    -0.2166570000 
 H        0.4697480000    -0.9138800000     0.2825800000 
 H        0.5311980000     0.9409070000     0.1250210000 
 H        2.4981190000    -2.2123770000    -0.1454390000 
 H        3.6999950000    -1.4136180000     0.8682710000 
 H        3.6816710000    -1.5110680000    -2.0421070000 
 H        5.6435890000    -0.2089580000    -1.9934310000 
 H        5.5361910000    -0.1697220000    -0.2328480000 
 H        3.5850910000     1.1006660000    -2.2132390000 
 H        4.6633430000     1.9597300000    -1.0931980000 
*
