! RI PBE def2-SVP def2-SVP/J NBO PAL2
% maxcore 2000
% output
    # printlevel mini
    print[ P_Basis ] 0
    print[ P_SCFInfo ] 1
    print[ P_SCFIterInfo ] 1
    print[ P_OrbEn ] 0
    print[ P_Cartesian ] 0
end
*xyz 0 1
 C        1.1029320000    -0.0719950000    -0.0277820000 
 C        2.5774900000     0.0532400000    -0.0106460000 
 C        3.4373520000     1.1163770000    -0.0832350000 
 N        4.7421410000     0.7108600000    -0.0093810000 
 C        4.7030840000    -0.5891090000     0.1075410000 
 N        3.4197990000    -1.0236370000     0.0971260000 
 O        3.0199560000    -2.3151940000     0.2907870000 
 H        0.6561590000     0.9214790000    -0.0580520000 
 H        0.7326220000    -0.5877060000     0.8621200000 
 H        0.7446560000    -0.6256550000    -0.9013030000 
 H        3.1758350000     2.1593380000    -0.1824680000 
 H        5.5371650000    -1.2669590000     0.2070340000 
 H        2.9144100000    -2.6959390000    -0.5904420000 
*
