! RI PBE def2-SVP def2-SVP/J NBO PAL2
% maxcore 2000
% output
    # printlevel mini
    print[ P_Basis ] 0
    print[ P_SCFInfo ] 1
    print[ P_SCFIterInfo ] 1
    print[ P_OrbEn ] 0
    print[ P_Cartesian ] 0
end
*xyz 0 1
 C        1.0196520000     0.1493540000     0.2093770000 
 C        2.4549290000     0.1336180000    -0.2562840000 
 C        2.9013340000    -1.1189830000    -1.0230990000 
 N        3.9098720000    -0.6594010000    -1.9810490000 
 C        3.7745340000     0.5987410000    -2.0388820000 
 N        2.7512830000     1.1519870000    -1.2700110000 
 O        3.0790070000     2.4032120000    -0.7245750000 
 H        0.8457420000    -0.6458840000     0.9382040000 
 H        0.3399130000     0.0009150000    -0.6328560000 
 H        0.7738570000     1.0980500000     0.6922980000 
 H        3.1299570000     0.3090020000     0.5939670000 
 H        2.0562930000    -1.5475870000    -1.5768950000 
 H        3.3045930000    -1.9015810000    -0.3786450000 
 H        4.3593140000     1.2584970000    -2.6715960000 
 H        2.3587190000     2.9767410000    -1.0030450000 
*
