! RI PBE def2-SVP def2-SVP/J NBO PAL2
% maxcore 2000
% output
    # printlevel mini
    print[ P_Basis ] 0
    print[ P_SCFInfo ] 1
    print[ P_SCFIterInfo ] 1
    print[ P_OrbEn ] 0
    print[ P_Cartesian ] 0
end
*xyz 0 1
 C        0.9479580000    -0.0515690000    -0.0698520000 
 C        2.4126010000     0.1105010000    -0.0652970000 
 C        3.2705740000     1.1458230000    -0.0651940000 
 N        4.5829140000     0.6914790000    -0.0595330000 
 C        4.4521880000    -0.5922890000    -0.0564820000 
 N        5.4250950000    -1.5284890000    -0.0508390000 
 O        3.1840970000    -1.0409050000    -0.0595140000 
 H        0.4766340000     0.9316880000    -0.0739740000 
 H        0.5973160000    -0.5935940000     0.8137350000 
 H        0.6033000000    -0.5981320000    -0.9529990000 
 H        3.0383280000     2.1993680000    -0.0688400000 
 H        6.3800810000    -1.2297130000    -0.0472540000 
 H        5.1967030000    -2.5022680000    -0.0474570000 
*
