! RI PBE def2-SVP def2-SVP/J NBO PAL2
% maxcore 2000
% output
    # printlevel mini
    print[ P_Basis ] 0
    print[ P_SCFInfo ] 1
    print[ P_SCFIterInfo ] 1
    print[ P_OrbEn ] 0
    print[ P_Cartesian ] 0
end
*xyz 0 1
 C        1.0856410000     0.0897150000     0.3980480000 
 C        2.4622950000     0.0993480000    -0.2127980000 
 C        2.8899460000    -1.2307700000    -0.8006790000 
 N        4.1355540000    -1.1307440000    -1.5313310000 
 C        4.4286430000     0.0265980000    -1.9553140000 
 N        3.6368760000     1.1495500000    -1.9380140000 
 O        2.4230500000     1.0668660000    -1.2697650000 
 H        1.0434200000    -0.6339760000     1.2145900000 
 H        0.3400080000    -0.1873510000    -0.3500570000 
 H        0.8273720000     1.0730690000     0.7948110000 
 H        3.2113840000     0.4231010000     0.5248870000 
 H        2.0972610000    -1.6079050000    -1.4586170000 
 H        3.0164610000    -1.9688190000    -0.0018280000 
 H        5.3860100000     0.2084510000    -2.4456850000 
 H        4.1058780000     2.0205570000    -1.7162380000 
*
