! RI PBE def2-SVP def2-SVP/J NBO PAL2
% maxcore 2000
% output
    # printlevel mini
    print[ P_Basis ] 0
    print[ P_SCFInfo ] 1
    print[ P_SCFIterInfo ] 1
    print[ P_OrbEn ] 0
    print[ P_Cartesian ] 0
end
*xyz 0 1
 C        1.1459570000    -0.0542350000     0.0720370000 
 C        2.6479780000     0.0226370000     0.0452680000 
 C        3.2632080000     1.2023180000     0.7890270000 
 N        4.5149110000     0.6079550000     1.1998500000 
 C        4.3484880000    -0.7622860000     1.3398850000 
 N        5.0645930000    -1.6334660000     1.9051270000 
 O        3.2061960000    -1.1151690000     0.7081540000 
 H        0.7160640000     0.8124660000    -0.4359900000 
 H        0.7802980000    -0.0754050000     1.1006740000 
 H        0.7996530000    -0.9545870000    -0.4371020000 
 H        3.0128630000     0.0144240000    -0.9896250000 
 H        2.6330990000     1.4993880000     1.6389630000 
 H        3.4110130000     2.0666690000     0.1388030000 
 H        5.0696190000     1.0666150000     1.9025640000 
 H        5.8753600000    -1.2104240000     2.3439550000 
*
