! RI PBE def2-SVP def2-SVP/J NBO PAL2
% maxcore 2000
% output
    # printlevel mini
    print[ P_Basis ] 0
    print[ P_SCFInfo ] 1
    print[ P_SCFIterInfo ] 1
    print[ P_OrbEn ] 0
    print[ P_Cartesian ] 0
end
*xyz 0 1
 C        1.1019590000     0.0795380000     0.3022960000 
 C        2.3848680000     0.0805290000    -0.0232580000 
 C        3.2297070000     1.3291070000    -0.1806690000 
 N        4.5251950000     0.8065030000    -0.5336290000 
 C        4.6225190000    -0.5456120000    -0.6201080000 
 O        5.6195130000    -1.1677140000    -0.9017540000 
 C        3.2516000000    -1.1139210000    -0.2978010000 
 H        0.5616820000     1.0030680000     0.4815900000 
 H        0.5434080000    -0.8439810000     0.4018880000 
 H        3.2646550000     1.9057270000     0.7507810000 
 H        2.8294000000     1.9841940000    -0.9629220000 
 H        5.3294660000     1.3836290000    -0.7115390000 
 H        3.3359760000    -1.7894100000     0.5573290000 
 H        2.9038420000    -1.7119560000    -1.1440050000 
*
