! RI PBE def2-SVP def2-SVP/J NBO PAL2
% maxcore 2000
% output
    # printlevel mini
    print[ P_Basis ] 0
    print[ P_SCFInfo ] 1
    print[ P_SCFIterInfo ] 1
    print[ P_OrbEn ] 0
    print[ P_Cartesian ] 0
end
*xyz 0 1
 C        0.9205270000     0.0800370000     0.1437970000 
 C        2.4288690000     0.1219080000     0.0002300000 
 C        2.8199590000     0.1387510000    -1.4694900000 
 N        4.2573280000     0.1276590000    -1.6768530000 
 C        3.1019240000     1.1637180000     0.9139530000 
 O        3.6556870000     0.1498590000     1.7534060000 
 C        3.1727280000    -0.8897610000     0.8882940000 
 H        0.4542580000     0.9516060000    -0.3259020000 
 H        0.6291680000     0.0700930000     1.1966230000 
 H        0.5056290000    -0.8159760000    -0.3278970000 
 H        2.3083710000     0.9899270000    -1.9492370000 
 H        2.4109250000    -0.7650790000    -1.9348660000 
 H        4.6690040000     1.0219920000    -1.4434110000 
 H        4.4771370000    -0.0551820000    -2.6465850000 
 H        2.4182360000     1.8247560000     1.4586410000 
 H        3.8844760000     1.7768310000     0.4491490000 
 H        2.5402460000    -1.6049230000     1.4251150000 
 H        3.9944380000    -1.4081390000     0.3864540000 
*
