! RI PBE def2-SVP def2-SVP/J NBO PAL2
% maxcore 2000
% output
    # printlevel mini
    print[ P_Basis ] 0
    print[ P_SCFInfo ] 1
    print[ P_SCFIterInfo ] 1
    print[ P_OrbEn ] 0
    print[ P_Cartesian ] 0
end
*xyz 0 1
 C        0.9031900000    -0.0205940000    -0.0889110000 
 C        2.4153370000    -0.0689840000    -0.0209250000 
 C        3.0368620000     1.0844060000     0.7809220000 
 N        4.2874050000     0.5216460000     1.2283100000 
 C        4.3180580000    -0.8391700000     1.2482250000 
 O        5.2175010000    -1.5228430000     1.6784520000 
 C        3.0026770000    -1.3085790000     0.6505120000 
 H        0.5541620000     0.9117610000    -0.5411780000 
 H        0.4649370000    -0.0930840000     0.9107310000 
 H        0.5087300000    -0.8457370000    -0.6862320000 
 H        2.8217730000    -0.0125020000    -1.0367450000 
 H        2.3906440000     1.3635990000     1.6252070000 
 H        3.1916600000     1.9760860000     0.1681490000 
 H        5.0011780000     1.0483800000     1.7030970000 
 H        2.3715560000    -1.6555050000     1.4771980000 
 H        3.1623200000    -2.1548500000    -0.0171030000 
*
