! RI PBE def2-SVP def2-SVP/J NBO PAL2
% maxcore 2000
% output
    # printlevel mini
    print[ P_Basis ] 0
    print[ P_SCFInfo ] 1
    print[ P_SCFIterInfo ] 1
    print[ P_OrbEn ] 0
    print[ P_Cartesian ] 0
end
*xyz 0 1
 C        1.1099630000    -0.0048120000     0.2068020000 
 C        2.3984640000     0.0634330000    -0.1157430000 
 C        3.2523580000     1.3146930000    -0.1957440000 
 N        4.5342450000     0.7850550000    -0.5831480000 
 C        4.5374680000    -0.5702380000    -0.7342300000 
 O        5.4578310000    -1.2841150000    -1.0493050000 
 N        3.2430470000    -0.9754800000    -0.4473390000 
 H        0.5599710000     0.8943440000     0.4474190000 
 H        0.5788790000    -0.9472760000     0.2383680000 
 H        3.2876860000     1.8243480000     0.7726220000 
 H        2.8497500000     2.0140180000    -0.9357220000 
 H        5.3651410000     1.3234350000    -0.7363950000 
 H        2.9844980000    -1.9443750000    -0.4885840000 
*
