! RI PBE def2-SVP def2-SVP/J NBO PAL2
% maxcore 2000
% output
    # printlevel mini
    print[ P_Basis ] 0
    print[ P_SCFInfo ] 1
    print[ P_SCFIterInfo ] 1
    print[ P_OrbEn ] 0
    print[ P_Cartesian ] 0
end
*xyz 0 1
 C        1.0000570000     0.0079340000     0.0922040000 
 C        2.4663200000     0.1449720000     0.0967800000 
 C        3.2961510000     1.1915860000     0.0975410000 
 N        4.5859730000     0.6753410000     0.1027650000 
 C        4.5467530000    -0.6894980000     0.1051990000 
 O        5.4402010000    -1.4871000000     0.1096540000 
 O        3.2118670000    -1.0127920000     0.1014150000 
 H        0.5347620000     0.9937530000     0.0888530000 
 H        0.6539990000    -0.5372770000     0.9745790000 
 H        0.6598100000    -0.5405320000    -0.7904130000 
 H        3.0860400000     2.2471200000     0.0948650000 
 H        5.4487670000     1.1861830000     0.1046590000 
*
