! RI PBE def2-SVP def2-SVP/J NBO PAL2
% maxcore 2000
% output
    # printlevel mini
    print[ P_Basis ] 0
    print[ P_SCFInfo ] 1
    print[ P_SCFIterInfo ] 1
    print[ P_OrbEn ] 0
    print[ P_Cartesian ] 0
end
*xyz 0 1
 C        0.8660610000     0.0425540000     0.0477240000 
 C        2.3542820000     0.0336970000     0.0523410000 
 C        3.2065890000     1.1124740000     0.0569180000 
 N        4.4881700000     0.6592610000     0.0600930000 
 C        4.4970110000    -0.7123670000     0.0576920000 
 C        3.1843690000    -1.1153140000     0.0528860000 
 O        2.6759220000    -2.3774910000     0.0490640000 
 H        0.4827700000     1.0645320000     0.0482260000 
 H        0.4593910000    -0.4701690000     0.9240200000 
 H        0.4648640000    -0.4672550000    -0.8327840000 
 H        2.9830300000     2.1677770000     0.0580950000 
 H        5.3062050000     1.2375220000     0.0636590000 
 H        5.4149360000    -1.2779220000     0.0595490000 
 H        3.3984990000    -3.0091990000     0.0501090000 
*
