! RI PBE def2-SVP def2-SVP/J NBO PAL2
% maxcore 2000
% output
    # printlevel mini
    print[ P_Basis ] 0
    print[ P_SCFInfo ] 1
    print[ P_SCFIterInfo ] 1
    print[ P_OrbEn ] 0
    print[ P_Cartesian ] 0
end
*xyz 0 1
 C        1.0564220000     0.0379500000    -0.0412950000 
 C        2.5202120000     0.1961830000    -0.0360280000 
 C        3.3365080000     1.2508520000    -0.0354010000 
 N        4.6350450000     0.7506890000    -0.0292050000 
 C        4.6029490000    -0.6239420000    -0.0260590000 
 N        5.4964290000    -1.5186460000    -0.0204810000 
 O        3.2769930000    -0.9551770000    -0.0303780000 
 H        0.5761480000     1.0164940000    -0.0454280000 
 H        0.7180000000    -0.5125810000     0.8409620000 
 H        0.7247920000    -0.5166990000    -0.9235520000 
 H        3.1147730000     2.3040680000    -0.0387630000 
 H        5.4798120000     1.2881420000    -0.0272070000 
 H        6.4261180000    -1.1154220000    -0.0178540000 
*
