! RI PBE def2-SVP def2-SVP/J NBO PAL2
% maxcore 2000
% output
    # printlevel mini
    print[ P_Basis ] 0
    print[ P_SCFInfo ] 1
    print[ P_SCFIterInfo ] 1
    print[ P_OrbEn ] 0
    print[ P_Cartesian ] 0
end
*xyz 0 1
 C        0.9670240000     0.1350740000     0.0212070000 
 C        2.4557640000     0.0929420000     0.0272850000 
 C        3.2985320000     1.1681360000     0.0304370000 
 N        4.5960700000     0.6919620000     0.0358480000 
 C        4.5687950000    -0.6680950000     0.0360980000 
 O        5.6844370000    -1.4310940000     0.0408260000 
 C        3.2665570000    -1.0820490000     0.0309070000 
 H        0.6039220000     1.1646110000     0.0194750000 
 H        0.5482120000    -0.3645450000     0.8997150000 
 H        0.5553860000    -0.3649770000    -0.8604410000 
 H        3.0944630000     2.2264910000     0.0293270000 
 H        5.4189350000     1.2659750000     0.0390190000 
 H        6.4707600000    -0.8808390000     0.0440590000 
 H        2.9356420000    -2.1083930000     0.0298380000 
*
