! RI PBE def2-SVP def2-SVP/J NBO PAL2
% maxcore 2000
% output
    # printlevel mini
    print[ P_Basis ] 0
    print[ P_SCFInfo ] 1
    print[ P_SCFIterInfo ] 1
    print[ P_OrbEn ] 0
    print[ P_Cartesian ] 0
end
*xyz 0 1
 C        0.9606110000    -0.0817940000     0.0611040000 
 C        2.4382520000    -0.0097410000     0.0660250000 
 C        3.2721450000     1.0468340000     0.0686580000 
 N        4.5712600000     0.5582130000     0.0730730000 
 C        4.5849960000    -0.8182400000     0.0733060000 
 O        5.5400250000    -1.5674300000     0.0766120000 
 N        3.2422720000    -1.1416230000     0.0688760000 
 H        0.5382020000     0.9230600000     0.0595540000 
 H        0.5796270000    -0.6063080000     0.9431100000 
 H        0.5855230000    -0.6065530000    -0.8232810000 
 H        3.0479340000     2.0996320000     0.0677610000 
 H        5.4174110000     1.0960780000     0.0758310000 
 H        2.9302320000    -2.0954170000     0.0679710000 
*
