! RI PBE def2-SVP def2-SVP/J NBO PAL2
% maxcore 2000
% output
    # printlevel mini
    print[ P_Basis ] 0
    print[ P_SCFInfo ] 1
    print[ P_SCFIterInfo ] 1
    print[ P_OrbEn ] 0
    print[ P_Cartesian ] 0
end
*xyz 0 1
 C        0.9951530000    -0.0315640000    -0.1011010000 
 C        2.4614200000     0.1054340000    -0.0965580000 
 C        3.2912790000     1.1520260000    -0.0957900000 
 N        4.5810880000     0.6357460000    -0.0906150000 
 C        4.5418300000    -0.7290920000    -0.0882140000 
 O        5.4352570000    -1.5267190000    -0.0838060000 
 O        3.2069350000    -1.0523500000    -0.0919730000 
 H        0.5298840000     0.9542670000    -0.1044140000 
 H        0.6491030000    -0.5767880000     0.7812690000 
 H        0.6548690000    -0.5799990000    -0.9837230000 
 H        3.0811970000     2.2075650000    -0.0984340000 
 H        5.4438950000     1.1465640000    -0.0887300000 
*
