! RI PBE def2-SVP def2-SVP/J NBO PAL2
% maxcore 2000
% output
    # printlevel mini
    print[ P_Basis ] 0
    print[ P_SCFInfo ] 1
    print[ P_SCFIterInfo ] 1
    print[ P_OrbEn ] 0
    print[ P_Cartesian ] 0
end
*xyz 0 1
 C        0.9271560000     0.0899350000    -0.0903480000 
 C        2.4106690000     0.0963940000    -0.0784730000 
 C        3.2679880000     1.1513360000    -0.0747540000 
 N        4.5482690000     0.7171540000    -0.0631730000 
 N        4.5231090000    -0.6458450000    -0.0592840000 
 C        3.2169600000    -1.1150870000    -0.0683860000 
 O        2.9044360000    -2.2941670000    -0.0673740000 
 H        0.5236500000     1.1040890000    -0.0969820000 
 H        0.5311870000    -0.4321820000     0.7849160000 
 H        0.5452820000    -0.4380560000    -0.9683420000 
 H        3.0631210000     2.2116970000    -0.0795730000 
 H        5.4028730000     1.2359480000    -0.0578030000 
 H        5.3630080000    -1.1948150000    -0.0509140000 
*
