! RI PBE def2-SVP def2-SVP/J NBO PAL2
% maxcore 2000
% output
    # printlevel mini
    print[ P_Basis ] 0
    print[ P_SCFInfo ] 1
    print[ P_SCFIterInfo ] 1
    print[ P_OrbEn ] 0
    print[ P_Cartesian ] 0
end
*xyz 0 1
 C        1.1040620000    -0.0103240000    -0.0983470000 
 C        2.4165790000    -0.0594910000     0.1127500000 
 C        3.3245990000    -1.1766710000     0.2830410000 
 N        4.5357850000    -0.7818240000     0.4676860000 
 N        4.5373580000     0.5831270000     0.4374330000 
 C        3.3030730000     1.1459900000     0.2277870000 
 O        3.0324230000     2.3203410000     0.1581310000 
 H        0.5005210000    -0.9074690000    -0.1748540000 
 H        0.6115270000     0.9510060000    -0.1985730000 
 H        3.0894030000    -2.2318400000     0.2689850000 
 H        5.4021710000     1.0780560000     0.5644700000 
*
