! RI PBE def2-SVP def2-SVP/J NBO PAL2
% maxcore 2000
% output
    # printlevel mini
    print[ P_Basis ] 0
    print[ P_SCFInfo ] 1
    print[ P_SCFIterInfo ] 1
    print[ P_OrbEn ] 0
    print[ P_Cartesian ] 0
end
*xyz 0 1
 C        1.2048340000     0.0223830000     0.3357650000 
 C        2.4556970000     0.1333650000    -0.0811580000 
 C        3.3174870000     1.3379450000    -0.3091730000 
 N        4.7006770000     0.8241090000    -0.3489200000 
 N        4.5540340000    -0.5526880000    -0.6161730000 
 C        3.2855400000    -1.0401500000    -0.4984150000 
 O        2.9297320000    -2.1740460000    -0.7221190000 
 H        0.6078660000     0.8811900000     0.6210250000 
 H        0.7487400000    -0.9602720000     0.3897190000 
 H        3.2243240000     2.1116830000     0.4534380000 
 H        3.0836650000     1.7878080000    -1.2809160000 
 H        5.0831580000     0.8956960000     0.5900940000 
 H        5.2548670000    -1.0035340000    -1.1801670000 
*
