! RI PBE def2-SVP def2-SVP/J NBO PAL2
% maxcore 2000
% output
    # printlevel mini
    print[ P_Basis ] 0
    print[ P_SCFInfo ] 1
    print[ P_SCFIterInfo ] 1
    print[ P_OrbEn ] 0
    print[ P_Cartesian ] 0
end
*xyz 0 1
 C        0.9262170000     0.0767930000    -0.1628390000 
 C        2.4429830000     0.0304340000    -0.0365120000 
 C        3.1268720000    -1.1376580000    -0.6651710000 
 N        4.0164770000    -0.8067080000    -1.5205210000 
 N        4.0439680000     0.5628370000    -1.5738130000 
 C        3.1319480000     1.1826190000    -0.7635370000 
 O        2.9327740000     2.3681330000    -0.6674540000 
 H        0.4611500000    -0.7218540000     0.4176130000 
 H        0.6180960000    -0.0310670000    -1.2044760000 
 H        0.5594490000     1.0363940000     0.2041740000 
 H        2.7209190000     0.1023550000     1.0228750000 
 H        2.9373620000    -2.1840310000    -0.4613490000 
 H        4.6558850000     1.0173420000    -2.2290110000 
*
