! RI PBE def2-SVP def2-SVP/J NBO PAL2
% maxcore 2000
% output
    # printlevel mini
    print[ P_Basis ] 0
    print[ P_SCFInfo ] 1
    print[ P_SCFIterInfo ] 1
    print[ P_OrbEn ] 0
    print[ P_Cartesian ] 0
end
*xyz 0 1
 C        1.0374010000    -0.0609340000     0.2452690000 
 C        2.4907130000    -0.0491830000    -0.1690540000 
 C        3.4209900000     0.9985400000     0.4807420000 
 N        4.1739900000    -0.1234980000     1.0368890000 
 N        5.2829440000    -0.2008600000     1.8386040000 
 C        3.3817920000    -1.1090270000     0.5068470000 
 O        3.3921220000    -2.3038740000     0.5716420000 
 H        0.4914410000     0.7787510000    -0.1910800000 
 H        0.9391200000    -0.0034400000     1.3325640000 
 H        0.5584890000    -0.9854890000    -0.0829700000 
 H        2.5974210000    -0.0859600000    -1.2556360000 
 H        2.9413230000     1.6278730000     1.2378270000 
 H        3.9954680000     1.6223310000    -0.2109680000 
 H        5.1228870000     0.2487490000     2.7321210000 
 H        6.0919890000     0.2081300000     1.3867030000 
*
