! RI PBE def2-SVP def2-SVP/J NBO PAL2
% maxcore 2000
% output
    # printlevel mini
    print[ P_Basis ] 0
    print[ P_SCFInfo ] 1
    print[ P_SCFIterInfo ] 1
    print[ P_OrbEn ] 0
    print[ P_Cartesian ] 0
end
*xyz 0 1
 C        0.8610950000    -0.1119330000    -0.0783370000 
 C        2.1847490000    -0.0396670000    -0.0745000000 
 C        2.9234600000     1.2781050000    -0.0860780000 
 N        4.3480450000     1.1018600000    -0.0782150000 
 N        4.9710800000    -0.0832160000    -0.0637150000 
 C        4.2693260000    -1.1326720000    -0.0554440000 
 O        2.9047830000    -1.1926990000    -0.0597920000 
 H        0.2697880000     0.7933880000    -0.0900150000 
 H        0.3554880000    -1.0678370000    -0.0699500000 
 H        2.5961790000     1.8546600000     0.7888910000 
 H        2.6033940000     1.8351420000    -0.9762480000 
 H        4.9579920000     1.8945560000    -0.0845770000 
 H        4.7241210000    -2.1111970000    -0.0436010000 
*
