! RI PBE def2-SVP def2-SVP/J NBO PAL2
% maxcore 2000
% output
    # printlevel mini
    print[ P_Basis ] 0
    print[ P_SCFInfo ] 1
    print[ P_SCFIterInfo ] 1
    print[ P_OrbEn ] 0
    print[ P_Cartesian ] 0
end
*xyz 0 1
 C        0.9848650000    -0.2245960000    -0.0007770000 
 C        2.4497010000    -0.0251120000    -0.0051470000 
 C        3.2476040000     1.0755910000    -0.0020160000 
 C        2.8736020000     2.5151030000     0.0073350000 
 C        4.5511340000     0.5119520000    -0.0099760000 
 N        4.5332180000    -0.7882270000    -0.0171280000 
 O        3.2056420000    -1.1345570000    -0.0140970000 
 H        0.4704690000     0.7358000000     0.0061230000 
 H        0.6715140000    -0.7909730000     0.8798080000 
 H        0.6650130000    -0.7817850000    -0.8848750000 
 H        1.7902460000     2.6435630000     0.0123510000 
 H        3.2629820000     3.0348360000    -0.8721500000 
 H        3.2699900000     3.0252020000     0.8893240000 
 H        5.5045300000     1.0227930000    -0.0106850000 
*
