! RI PBE def2-SVP def2-SVP/J NBO PAL2
% maxcore 2000
% output
    # printlevel mini
    print[ P_Basis ] 0
    print[ P_SCFInfo ] 1
    print[ P_SCFIterInfo ] 1
    print[ P_OrbEn ] 0
    print[ P_Cartesian ] 0
end
*xyz 0 1
 C        0.9134920000     0.0502520000    -0.0395660000 
 C        2.4003710000     0.0976740000    -0.0388440000 
 C        3.2261720000     1.1806870000    -0.0367510000 
 O        3.0234260000     2.4949810000    -0.0347360000 
 O        4.5024050000     0.8280170000    -0.0367600000 
 N        4.5762660000    -0.5585390000    -0.0389490000 
 C        3.3393050000    -0.9636920000    -0.0401310000 
 H        0.4783150000     1.0538460000    -0.0381650000 
 H        0.5229400000    -0.4653030000     0.8416150000 
 H        0.5237090000    -0.4625050000    -0.9227180000 
 H        2.0765860000     2.6654250000    -0.0348780000 
 H        3.1438240000    -2.0278520000    -0.0419180000 
*
