! RI PBE def2-SVP def2-SVP/J NBO PAL2
% maxcore 2000
% output
    # printlevel mini
    print[ P_Basis ] 0
    print[ P_SCFInfo ] 1
    print[ P_SCFIterInfo ] 1
    print[ P_OrbEn ] 0
    print[ P_Cartesian ] 0
end
*xyz 0 1
 C        0.9154630000    -0.0103040000    -0.0849480000 
 C        2.2393280000    -0.0674530000     0.0292080000 
 C        3.1516280000    -1.1746140000     0.1712890000 
 N        4.3697280000    -0.7911330000     0.2495850000 
 O        4.4106120000     0.6053470000     0.1699470000 
 C        3.1437460000     1.1100630000     0.0353160000 
 O        2.9153520000     2.2757340000    -0.0537910000 
 H        0.2997960000    -0.9019980000    -0.0835220000 
 H        0.4262930000     0.9526510000    -0.1828950000 
 H        2.9264530000    -2.2320150000     0.2152110000 
*
