! RI PBE def2-SVP def2-SVP/J NBO PAL2
% maxcore 2000
% output
    # printlevel mini
    print[ P_Basis ] 0
    print[ P_SCFInfo ] 1
    print[ P_SCFIterInfo ] 1
    print[ P_OrbEn ] 0
    print[ P_Cartesian ] 0
end
*xyz 0 1
 C        0.8938220000     0.0248970000     0.0146710000 
 C        2.3755360000     0.1283550000    -0.0193440000 
 C        3.1493140000     1.2511300000    -0.1465090000 
 N        4.4362550000     0.7875170000    -0.1140290000 
 O        5.5580750000     1.5472750000    -0.2835860000 
 C        4.4088760000    -0.5553300000     0.0097920000 
 N        3.1736120000    -0.9822780000     0.0763100000 
 H        0.4282090000     1.0068960000    -0.0800140000 
 H        0.5577260000    -0.4267830000     0.9512420000 
 H        0.5317120000    -0.6077990000    -0.7993200000 
 H        2.9256390000     2.2980860000    -0.2636420000 
 H        5.8001860000     1.8597530000     0.5975540000 
 H        5.3102280000    -1.1485080000     0.0399760000 
*
