! RI PBE def2-SVP def2-SVP/J NBO PAL2
% maxcore 2000
% output
    # printlevel mini
    print[ P_Basis ] 0
    print[ P_SCFInfo ] 1
    print[ P_SCFIterInfo ] 1
    print[ P_OrbEn ] 0
    print[ P_Cartesian ] 0
end
*xyz 0 1
 C        1.6471700000     1.2578190000     0.7504950000 
 C        2.8057660000     0.3298350000     0.5256950000 
 C        2.5022680000    -1.1250070000     0.7531190000 
 O        4.0603780000     0.7589100000     1.0711730000 
 C        3.9330060000     0.6837330000    -0.3402510000 
 C        4.0786340000     1.9605620000    -1.1163270000 
 N        3.6661940000     1.7448370000    -2.4961460000 
 H        0.8514560000     1.0554920000     0.0292890000 
 H        1.9391310000     2.3029570000     0.6621080000 
 H        1.2402410000     1.1067880000     1.7541280000 
 H        1.7142710000    -1.4648420000     0.0760800000 
 H        2.1583850000    -1.2858930000     1.7786530000 
 H        3.3909010000    -1.7363570000     0.5901070000 
 H        4.4777490000    -0.1552320000    -0.7829490000 
 H        5.1192220000     2.3052000000    -1.0044860000 
 H        3.4456660000     2.7344290000    -0.6795900000 
 H        4.2940170000     1.0959720000    -2.9560510000 
 H        3.7118540000     2.6106970000    -3.0176370000 
*
