! RI PBE def2-SVP def2-SVP/J NBO PAL2
% maxcore 2000
% output
    # printlevel mini
    print[ P_Basis ] 0
    print[ P_SCFInfo ] 1
    print[ P_SCFIterInfo ] 1
    print[ P_OrbEn ] 0
    print[ P_Cartesian ] 0
end
*xyz 0 1
 C        0.5348560000    -0.0190150000    -0.5886650000 
 C        1.8543180000     0.5426600000    -0.1411470000 
 C        3.1382240000    -0.1763540000    -0.4155420000 
 O        3.0416730000    -1.3732690000    -1.1213770000 
 C        2.8585550000     1.1387510000    -1.1006650000 
 C        2.5745900000     1.1529410000    -2.5793130000 
 N        3.5918560000     2.2513850000    -0.5568150000 
 H        0.0897430000    -0.6202900000     0.2079680000 
 H        0.6418200000    -0.6665820000    -1.4584990000 
 H       -0.1713000000     0.7781690000    -0.8366340000 
 H        1.8329520000     1.0496400000     0.8180450000 
 H        3.8944740000    -0.1555040000     0.3657270000 
 H        3.8446240000    -1.4866760000    -1.6364560000 
 H        2.1077610000     0.2284430000    -2.9197220000 
 H        3.5050300000     1.2845680000    -3.1424460000 
 H        1.9127120000     1.9847980000    -2.8396350000 
 H        4.4536740000     2.4005010000    -1.0701120000 
 H        3.0496270000     3.1054350000    -0.6271320000 
*
