! RI PBE def2-SVP def2-SVP/J NBO PAL2
% maxcore 2000
% output
    # printlevel mini
    print[ P_Basis ] 0
    print[ P_SCFInfo ] 1
    print[ P_SCFIterInfo ] 1
    print[ P_OrbEn ] 0
    print[ P_Cartesian ] 0
end
*xyz 0 1
 C        0.9370340000     0.0578350000    -0.0138190000 
 C        2.4427030000     0.0118030000    -0.0697730000 
 C        3.2446870000     1.0165620000     0.7670850000 
 O        3.9739600000    -0.0381070000     1.4222700000 
 C        3.1583470000    -1.0364570000     0.8110630000 
 C        3.9239190000    -2.0689250000     0.1211800000 
 N        4.5017240000    -2.8851740000    -0.4459980000 
 H        0.5579650000     0.9426490000    -0.5308870000 
 H        0.5808160000     0.0943540000     1.0191750000 
 H        0.4972030000    -0.8191800000    -0.4947690000 
 H        2.7958720000    -0.0343230000    -1.1006290000 
 H        2.6447530000     1.5892630000     1.4826430000 
 H        3.9111990000     1.6905820000     0.2244140000 
 H        2.4975270000    -1.5240910000     1.5394560000 
*
