! RI PBE def2-SVP def2-SVP/J NBO PAL2
% maxcore 2000
% output
    # printlevel mini
    print[ P_Basis ] 0
    print[ P_SCFInfo ] 1
    print[ P_SCFIterInfo ] 1
    print[ P_OrbEn ] 0
    print[ P_Cartesian ] 0
end
*xyz 0 1
 C        1.0588730000     0.1085400000    -0.2899280000 
 C        2.5449340000     0.1153060000    -0.0065050000 
 C        2.9995270000     1.1498530000     1.0069180000 
 O        4.2432260000     0.6942570000     1.5176650000 
 C        4.4086320000    -0.6797680000     1.2167720000 
 C        3.0894490000    -1.1691420000     0.6327720000 
 N        3.2672830000    -2.3387520000    -0.1966260000 
 H        0.7259920000     1.0523150000    -0.7290860000 
 H        0.4878000000    -0.0515380000     0.6297390000 
 H        0.7940740000    -0.6867870000    -0.9924520000 
 H        3.0982750000     0.2745130000    -0.9423600000 
 H        2.2670110000     1.2336680000     1.8242480000 
 H        3.1410600000     2.1462820000     0.5790500000 
 H        4.6961550000    -1.2222400000     2.1212230000 
 H        5.2134030000    -0.8049820000     0.4777770000 
 H        2.4176230000    -1.4486410000     1.4543980000 
 H        3.8137510000    -2.1137550000    -1.0204450000 
 H        2.3778430000    -2.7045090000    -0.5111520000 
*
