! RI PBE def2-SVP def2-SVP/J NBO PAL2
% maxcore 2000
% output
    # printlevel mini
    print[ P_Basis ] 0
    print[ P_SCFInfo ] 1
    print[ P_SCFIterInfo ] 1
    print[ P_OrbEn ] 0
    print[ P_Cartesian ] 0
end
*xyz 0 1
 C        1.0777390000    -0.0534150000     0.2107180000 
 C        2.5335290000    -0.0072280000    -0.0743710000 
 C        3.3386690000    -0.9989220000    -0.4449380000 
 O        4.6383840000    -0.6616260000    -0.6625860000 
 C        4.7669890000     0.6888970000    -0.2012130000 
 C        3.3433810000     1.2676510000    -0.1046470000 
 N        2.8857140000     2.1237100000    -1.1895400000 
 H        0.6731380000    -1.0555410000     0.0560750000 
 H        0.5345050000     0.6420820000    -0.4349970000 
 H        0.8638610000     0.2386790000     1.2446530000 
 H        3.1078350000    -2.0431940000    -0.6118300000 
 H        5.4053470000     1.2340410000    -0.8991430000 
 H        5.2475220000     0.6604610000     0.7828710000 
 H        3.2352740000     1.8431420000     0.8208660000 
 H        2.9959740000     1.6524790000    -2.0800040000 
 H        3.4153390000     2.9862030000    -1.2253030000 
*
