! RI PBE def2-SVP def2-SVP/J NBO PAL2
% maxcore 2000
% output
    # printlevel mini
    print[ P_Basis ] 0
    print[ P_SCFInfo ] 1
    print[ P_SCFIterInfo ] 1
    print[ P_OrbEn ] 0
    print[ P_Cartesian ] 0
end
*xyz 0 1
 C        1.0796460000     0.0326490000     0.0458290000 
 C        2.5530660000     0.1365410000     0.0496590000 
 N        3.2817980000     1.2016790000     0.0551700000 
 C        4.5922660000     0.7497120000     0.0568500000 
 C        5.7446110000     1.6904870000     0.0632040000 
 C        4.5685080000    -0.6005040000     0.0516820000 
 O        3.2664920000    -1.0056980000     0.0471340000 
 H        0.6559220000     1.0346120000     0.0481170000 
 H        0.7233290000    -0.5090720000     0.9253790000 
 H        0.7275220000    -0.5032920000    -0.8389320000 
 H        5.3715520000     2.7142400000     0.0656890000 
 H        6.3775600000     1.5608620000    -0.8176240000 
 H        6.3727650000     1.5548460000     0.9465590000 
 H        5.3159840000    -1.3752640000     0.0505730000 
*
