! RI PBE def2-SVP def2-SVP/J NBO PAL2
% maxcore 2000
% output
    # printlevel mini
    print[ P_Basis ] 0
    print[ P_SCFInfo ] 1
    print[ P_SCFIterInfo ] 1
    print[ P_OrbEn ] 0
    print[ P_Cartesian ] 0
end
*xyz 0 1
 C        1.1660640000    -0.0555890000     0.3649230000 
 C        2.6065410000     0.1963630000    -0.0275150000 
 C        2.7670370000     0.2607510000    -1.5392900000 
 O        4.1176690000     0.2945790000    -1.9094160000 
 C        3.2875710000     1.3250920000     0.7796860000 
 C        3.9451770000     0.2153630000     1.6105800000 
 N        3.5847480000    -0.7549490000     0.5619730000 
 H        0.5141520000     0.7312010000    -0.0257860000 
 H        1.0489550000    -0.0772410000     1.4514930000 
 H        0.8142490000    -1.0104570000    -0.0373530000 
 H        2.2845640000     1.1639520000    -1.9269880000 
 H        2.2560360000    -0.6069400000    -1.9885650000 
 H        4.5481790000    -0.3113120000    -1.2854080000 
 H        2.6253140000     2.0147860000     1.3022100000 
 H        4.0040660000     1.8809130000     0.1754560000 
 H        3.4373130000     0.0448630000     2.5665100000 
 H        5.0189440000     0.2961550000     1.7959440000 
 H        3.2001910000    -1.6356190000     0.8819360000 
*
