! RI PBE def2-SVP def2-SVP/J NBO PAL2
% maxcore 2000
% output
    # printlevel mini
    print[ P_Basis ] 0
    print[ P_SCFInfo ] 1
    print[ P_SCFIterInfo ] 1
    print[ P_OrbEn ] 0
    print[ P_Cartesian ] 0
end
*xyz 0 1
 C        0.9921070000    -0.0360640000     0.0929920000 
 C        2.4732290000    -0.0140690000     0.0933340000 
 C        3.3117800000     1.0376980000     0.0907940000 
 O        4.6056860000     0.5481600000     0.0924550000 
 C        4.4430980000    -0.7824570000     0.0958740000 
 N        5.5643780000    -1.5327470000     0.0981000000 
 N        3.2164650000    -1.1899070000     0.0965710000 
 H        0.5843490000     0.9754770000     0.0903520000 
 H        0.6146260000    -0.5612880000     0.9740520000 
 H        0.6150960000    -0.5656840000    -0.7856370000 
 H        3.2017050000     2.1074290000     0.0879630000 
 H        6.4669720000    -1.1016290000     0.0975630000 
 H        5.4766290000    -2.5294190000     0.1008970000 
*
