! RI PBE def2-SVP def2-SVP/J NBO PAL2
% maxcore 2000
% output
    # printlevel mini
    print[ P_Basis ] 0
    print[ P_SCFInfo ] 1
    print[ P_SCFIterInfo ] 1
    print[ P_OrbEn ] 0
    print[ P_Cartesian ] 0
end
*xyz 0 1
 C        1.0442710000    -0.1189130000     0.2895470000 
 C        2.3498790000    -0.0733840000     0.0413440000 
 C        3.2544610000     1.1324800000     0.0734080000 
 O        4.5486570000     0.6388210000    -0.2663190000 
 C        4.4932610000    -0.6986340000    -0.4878270000 
 N        5.4459460000    -1.4566470000    -0.8064630000 
 N        3.1939720000    -1.1016470000    -0.3028840000 
 H        0.5091920000     0.7831510000     0.5512350000 
 H        0.4845160000    -1.0435370000     0.2387120000 
 H        3.2963880000     1.5900590000     1.0647510000 
 H        2.9585460000     1.8892800000    -0.6570600000 
 H        6.3116720000    -0.9342520000    -0.8855720000 
 H        2.9316300000    -2.0635880000    -0.4185900000 
*
