! RI PBE def2-SVP def2-SVP/J NBO PAL2
% maxcore 2000
% output
    # printlevel mini
    print[ P_Basis ] 0
    print[ P_SCFInfo ] 1
    print[ P_SCFIterInfo ] 1
    print[ P_OrbEn ] 0
    print[ P_Cartesian ] 0
end
*xyz 0 1
 C        0.9906840000     0.0593710000    -0.0780440000 
 C        2.4676090000     0.1162080000    -0.0725330000 
 C        3.3128230000     1.1491230000    -0.0702740000 
 O        4.6164310000     0.6950240000    -0.0649400000 
 C        4.5910440000    -0.6740610000    -0.0638530000 
 N        5.5759560000    -1.4654980000    -0.0594320000 
 N        3.2649260000    -1.0200900000    -0.0685550000 
 H        0.5765880000     1.0671990000    -0.0804270000 
 H        0.6100660000    -0.4635770000     0.8044580000 
 H        0.6167210000    -0.4650210000    -0.9625320000 
 H        3.1631140000     2.2139520000    -0.0717780000 
 H        6.4522270000    -0.9566330000    -0.0565500000 
 H        2.9618230000    -1.9757970000    -0.0688430000 
*
