! RI PBE def2-SVP def2-SVP/J NBO PAL2
% maxcore 2000
% output
    # printlevel mini
    print[ P_Basis ] 0
    print[ P_SCFInfo ] 1
    print[ P_SCFIterInfo ] 1
    print[ P_OrbEn ] 0
    print[ P_Cartesian ] 0
end
*xyz 0 1
 C        0.7889400000     0.0674090000     0.0550170000 
 C        2.2976750000     0.0380830000     0.0046690000 
 C        2.9628150000     0.0044350000     1.3597040000 
 O        2.7302100000    -1.0976260000    -0.7708580000 
 C        3.3748390000    -0.5699080000    -1.8199140000 
 N        3.4480720000     0.6915860000    -1.8810830000 
 O        2.7810630000     1.1632430000    -0.7464330000 
 H        0.4074290000    -0.8101480000     0.5799230000 
 H        0.3854940000     0.0839290000    -0.9579700000 
 H        0.4565640000     0.9642460000     0.5799730000 
 H        2.6416000000    -0.8748460000     1.9208360000 
 H        2.6940880000     0.8994490000     1.9228250000 
 H        4.0462980000    -0.0221620000     1.2391260000 
 H        3.7966030000    -1.2385010000    -2.5552040000 
*
