! RI PBE def2-SVP def2-SVP/J NBO PAL2
% maxcore 2000
% output
    # printlevel mini
    print[ P_Basis ] 0
    print[ P_SCFInfo ] 1
    print[ P_SCFIterInfo ] 1
    print[ P_OrbEn ] 0
    print[ P_Cartesian ] 0
end
*xyz 0 1
 C        1.1032420000    -0.2475940000    -0.2881220000 
 C        2.5186400000     0.0045100000     0.1928550000 
 C        3.1520230000     1.2358270000    -0.4173320000 
 O        3.3238510000     1.0338150000    -1.8157090000 
 C        3.7058130000    -0.2136010000    -2.1278660000 
 N        3.7652350000    -1.2454400000    -1.3901720000 
 O        3.3660800000    -1.1097170000    -0.0683060000 
 H        0.4498790000     0.5767310000     0.0079630000 
 H        0.7215450000    -1.1691460000     0.1525010000 
 H        1.0603830000    -0.3429850000    -1.3742530000 
 H        2.5315220000     0.0998630000     1.2823280000 
 H        4.1290890000     1.4206910000     0.0386580000 
 H        2.5273190000     2.1221970000    -0.3043840000 
 H        3.9963790000    -0.3268500000    -3.1655700000 
*
