! RI PBE def2-SVP def2-SVP/J NBO PAL2
% maxcore 2000
% output
    # printlevel mini
    print[ P_Basis ] 0
    print[ P_SCFInfo ] 1
    print[ P_SCFIterInfo ] 1
    print[ P_OrbEn ] 0
    print[ P_Cartesian ] 0
end
*xyz 0 1
 C        1.0048280000    -0.0658290000     0.1079220000 
 C        2.3149760000    -0.0231010000    -0.1031020000 
 C        3.2290380000     1.1757310000    -0.0515090000 
 O        4.5271450000     0.6723570000    -0.3534780000 
 C        4.4738560000    -0.6623430000    -0.5715890000 
 O        5.4165950000    -1.3406810000    -0.8440250000 
 N        3.1664250000    -1.0591650000    -0.4211590000 
 H        0.4638300000     0.8379690000     0.3517610000 
 H        0.4445940000    -0.9894500000     0.0441980000 
 H        3.2487820000     1.6367170000     0.9384870000 
 H        2.9602110000     1.9312770000    -0.7930420000 
 H        2.9029280000    -2.0207820000    -0.5407860000 
*
