! RI PBE def2-SVP def2-SVP/J NBO PAL2
% maxcore 2000
% output
    # printlevel mini
    print[ P_Basis ] 0
    print[ P_SCFInfo ] 1
    print[ P_SCFIterInfo ] 1
    print[ P_OrbEn ] 0
    print[ P_Cartesian ] 0
end
*xyz 0 1
 C        0.8706840000     0.0310780000     0.0316510000 
 C        2.3474750000     0.0919060000     0.0354030000 
 C        3.1946420000     1.1245080000     0.0368540000 
 O        4.4934660000     0.6753870000     0.0405090000 
 C        4.4783380000    -0.6933230000     0.0414270000 
 O        5.4528560000    -1.3891630000     0.0444240000 
 N        3.1536740000    -1.0406650000     0.0382710000 
 H        0.4556330000     1.0386290000     0.0298850000 
 H        0.4911590000    -0.4913180000     0.9148620000 
 H        0.4957000000    -0.4925470000    -0.8527700000 
 H        3.0417100000     2.1891970000     0.0357150000 
 H        2.8531540000    -1.9980990000     0.0381700000 
*
