! RI PBE def2-SVP def2-SVP/J NBO PAL2
% maxcore 2000
% output
    # printlevel mini
    print[ P_Basis ] 0
    print[ P_SCFInfo ] 1
    print[ P_SCFIterInfo ] 1
    print[ P_OrbEn ] 0
    print[ P_Cartesian ] 0
end
*xyz 0 1
 C        0.9854160000     0.0153780000     0.0245560000 
 C        2.4717500000    -0.0107880000     0.0270730000 
 C        3.3514230000     1.0160990000     0.0318570000 
 O        4.6085500000     0.5671280000     0.0326420000 
 N        4.5874430000    -0.8053060000     0.0282660000 
 C        3.3295370000    -1.1521820000     0.0249660000 
 C        2.9419050000    -2.5856790000     0.0197540000 
 H        0.6100020000     1.0394530000     0.0271070000 
 H        0.5757450000    -0.4919350000     0.9024090000 
 H        0.5788240000    -0.4864220000    -0.8578860000 
 H        3.2297120000     2.0887980000     0.0350340000 
 H        3.8322390000    -3.2134240000     0.0193580000 
 H        2.3436010000    -2.8251250000    -0.8631530000 
 H        2.3404640000    -2.8306840000     0.8989970000 
*
