! RI PBE def2-SVP def2-SVP/J NBO PAL2
% maxcore 2000
% output
    # printlevel mini
    print[ P_Basis ] 0
    print[ P_SCFInfo ] 1
    print[ P_SCFIterInfo ] 1
    print[ P_OrbEn ] 0
    print[ P_Cartesian ] 0
end
*xyz 0 1
 C        0.8352040000     0.0731070000     0.0855480000 
 C        2.3203540000     0.0545770000     0.0679580000 
 C        3.2070990000     1.0734720000     0.0255940000 
 O        4.4622170000     0.6276830000     0.0427360000 
 N        4.4436070000    -0.7529300000     0.0880460000 
 C        3.1798720000    -1.0859700000     0.1120680000 
 N        2.7817940000    -2.3967580000     0.2407600000 
 H        0.4561030000     1.0955300000     0.1011160000 
 H        0.4436130000    -0.4434230000     0.9664960000 
 H        0.4129870000    -0.4188100000    -0.7966480000 
 H        3.0831890000     2.1455440000    -0.0123180000 
 H        3.5239670000    -3.0604340000     0.0790230000 
 H        1.9379840000    -2.6327890000    -0.2560900000 
*
