! RI PBE def2-SVP def2-SVP/J NBO PAL2
% maxcore 2000
% output
    # printlevel mini
    print[ P_Basis ] 0
    print[ P_SCFInfo ] 1
    print[ P_SCFIterInfo ] 1
    print[ P_OrbEn ] 0
    print[ P_Cartesian ] 0
end
*xyz 0 1
 C        1.0044100000    -0.0048230000     0.0627570000 
 C        2.4857480000    -0.0039800000     0.0666250000 
 C        3.3523020000     1.0165440000     0.0687120000 
 O        4.6481480000     0.6260040000     0.0721070000 
 N        4.5847920000    -0.7431340000     0.0721750000 
 C        3.2999060000    -1.2245090000     0.0689860000 
 O        2.9819450000    -2.3960990000     0.0683590000 
 H        0.6036310000     1.0094920000     0.0615610000 
 H        0.6186690000    -0.5317650000     0.9388630000 
 H        0.6232390000    -0.5320260000    -0.8151910000 
 H        3.2181220000     2.0879420000     0.0681720000 
 H        5.4697890000    -1.2171370000     0.0745840000 
*
