! RI PBE def2-SVP def2-SVP/J NBO PAL2
% maxcore 2000
% output
    # printlevel mini
    print[ P_Basis ] 0
    print[ P_SCFInfo ] 1
    print[ P_SCFIterInfo ] 1
    print[ P_OrbEn ] 0
    print[ P_Cartesian ] 0
end
*xyz 0 1
 C        1.0889610000    -0.0790050000     0.1085910000 
 C        2.3934380000    -0.0061810000    -0.1011410000 
 C        3.3141240000     1.1685760000    -0.0846600000 
 O        4.6259300000     0.6604900000    -0.3837370000 
 N        4.4742220000    -0.7085630000    -0.5561650000 
 C        3.2272670000    -1.2011140000    -0.4166930000 
 O        2.8900170000    -2.3596390000    -0.5283510000 
 H        0.4826660000     0.7895010000     0.3378990000 
 H        0.6032060000    -1.0465170000     0.0493340000 
 H        3.3584820000     1.6569430000     0.8932700000 
 H        3.0622070000     1.9140720000    -0.8445670000 
 H        5.3234910000    -1.1995730000    -0.7722810000 
*
