! RI PBE def2-SVP def2-SVP/J NBO PAL2
% maxcore 2000
% output
    # printlevel mini
    print[ P_Basis ] 0
    print[ P_SCFInfo ] 1
    print[ P_SCFIterInfo ] 1
    print[ P_OrbEn ] 0
    print[ P_Cartesian ] 0
end
*xyz 0 1
 C        0.9213160000     0.0605960000     0.3889050000 
 C        2.3647340000    -0.0121690000    -0.0711970000 
 C        2.7427480000     1.1690300000    -0.9394370000 
 O        4.1120110000     1.1514920000    -1.3106250000 
 N        4.5850110000    -0.0172520000    -1.8572680000 
 C        3.9106320000    -1.0817860000    -1.6891170000 
 C        2.6601580000    -1.2579120000    -0.8904330000 
 H        0.7424340000     0.9456460000     1.0045490000 
 H        0.6529940000    -0.8179170000     0.9809460000 
 H        0.2409090000     0.1036730000    -0.4672190000 
 H        3.0258760000    -0.0006560000     0.8027120000 
 H        2.6076700000     2.1209660000    -0.4223790000 
 H        2.1248150000     1.1752990000    -1.8499300000 
 H        4.3590300000    -1.9502490000    -2.1652920000 
 H        2.7719180000    -2.1402990000    -0.2518620000 
 H        1.8240540000    -1.4807720000    -1.5664440000 
*
