! RI PBE def2-SVP def2-SVP/J NBO PAL2
% maxcore 2000
% output
    # printlevel mini
    print[ P_Basis ] 0
    print[ P_SCFInfo ] 1
    print[ P_SCFIterInfo ] 1
    print[ P_OrbEn ] 0
    print[ P_Cartesian ] 0
end
*xyz 0 1
 C        0.8579330000    -0.0753890000     0.0881180000 
 C        2.1899910000    -0.0854340000     0.0864120000 
 C        2.9886970000     1.1911830000     0.0677610000 
 O        4.4110860000     1.0789170000     0.0677830000 
 N        5.0443280000    -0.1445720000     0.0836990000 
 C        4.3170740000    -1.1870160000     0.0987700000 
 N        2.9491930000    -1.2286010000     0.1009940000 
 H        0.3183230000     0.8615500000     0.0760320000 
 H        0.2791260000    -0.9911640000     0.1014480000 
 H        2.7181210000     1.7866540000     0.9452010000 
 H        2.7161630000     1.7620220000    -0.8253120000 
 H        4.8374600000    -2.1365150000     0.1110910000 
 H        2.4881150000    -2.1210460000     0.1138120000 
*
