! RI PBE def2-SVP def2-SVP/J NBO PAL2
% maxcore 2000
% output
    # printlevel mini
    print[ P_Basis ] 0
    print[ P_SCFInfo ] 1
    print[ P_SCFIterInfo ] 1
    print[ P_OrbEn ] 0
    print[ P_Cartesian ] 0
end
*xyz 0 1
 C        0.9010490000    -0.0986530000     0.3037310000 
 C        2.3893810000    -0.0988210000     0.0276280000 
 C        2.8299010000     1.0918450000    -0.8081220000 
 O        4.1818300000     0.9799980000    -1.1812590000 
 N        4.4533630000    -0.1513470000    -1.9652830000 
 C        3.7250910000    -1.1671050000    -1.6936180000 
 N        2.7835170000    -1.2753750000    -0.7181040000 
 H        0.6197620000     0.7731570000     0.8978820000 
 H        0.6096730000    -0.9889610000     0.8677290000 
 H        0.3309610000    -0.0785050000    -0.6290820000 
 H        2.9358660000    -0.0681720000     0.9782390000 
 H        2.7487330000     2.0220390000    -0.2434940000 
 H        2.1977190000     1.1596850000    -1.7055250000 
 H        3.9108910000    -2.0512660000    -2.2945210000 
 H        2.1503730000    -2.0542210000    -0.7613230000 
*
