! RI PBE def2-SVP def2-SVP/J NBO PAL2
% maxcore 2000
% output
    # printlevel mini
    print[ P_Basis ] 0
    print[ P_SCFInfo ] 1
    print[ P_SCFIterInfo ] 1
    print[ P_OrbEn ] 0
    print[ P_Cartesian ] 0
end
*xyz 0 1
 C        1.0458670000    -0.1580420000    -0.0186130000 
 C        2.5423750000    -0.0810620000    -0.0528400000 
 N        3.2776570000    -0.4904160000    -1.2447860000 
 C        3.2265240000     0.9275090000    -0.8863970000 
 C        4.5206660000     1.5288950000    -0.4808830000 
 C        5.1163140000     2.6410390000    -1.2132770000 
 O        4.4667520000     2.8526680000     0.0300850000 
 H        0.7091540000    -1.1874520000     0.1323700000 
 H        0.6141010000     0.2067450000    -0.9550690000 
 H        0.6420700000     0.4488650000     0.7956110000 
 H        3.0391530000    -0.3801770000     0.8677390000 
 H        2.6355150000    -0.6836370000    -2.0064190000 
 H        2.5857920000     1.5844460000    -1.4712370000 
 H        5.1838840000     0.8551180000     0.0598430000 
 H        4.5988290000     3.0439730000    -2.0813350000 
 H        6.1949460000     2.7767170000    -1.2055810000 
*
