! RI PBE def2-SVP def2-SVP/J NBO PAL2
% maxcore 2000
% output
    # printlevel mini
    print[ P_Basis ] 0
    print[ P_SCFInfo ] 1
    print[ P_SCFIterInfo ] 1
    print[ P_OrbEn ] 0
    print[ P_Cartesian ] 0
end
*xyz 0 1
 C        0.9997490000    -0.2349450000     0.0017900000 
 C        2.4726440000    -0.4600050000    -0.1625700000 
 N        3.0099250000    -1.0633300000    -1.3903790000 
 C        3.3378990000     0.3295270000    -1.0649760000 
 C        2.8061250000     1.4498730000    -1.9107520000 
 C        4.8036450000     0.4860500000    -0.7022030000 
 O        5.3365690000    -0.6715290000    -0.1232010000 
 H        0.5013660000    -1.1696240000     0.2730550000 
 H        0.5280610000     0.1392530000    -0.9087130000 
 H        0.8054940000     0.4851340000     0.8011440000 
 H        2.9611580000    -0.8540320000     0.7254950000 
 H        2.2935670000    -1.1046760000    -2.1083400000 
 H        1.7488370000     1.3310700000    -2.1485410000 
 H        3.3580860000     1.5093290000    -2.8534060000 
 H        2.9260950000     2.4088530000    -1.3980950000 
 H        4.9260730000     1.3068250000     0.0121140000 
 H        5.3551830000     0.7599160000    -1.6164230000 
 H        4.9273320000    -1.4048990000    -0.6074980000 
*
