! RI PBE def2-SVP def2-SVP/J NBO PAL2
% maxcore 2000
% output
    # printlevel mini
    print[ P_Basis ] 0
    print[ P_SCFInfo ] 1
    print[ P_SCFIterInfo ] 1
    print[ P_OrbEn ] 0
    print[ P_Cartesian ] 0
end
*xyz 0 1
 C        0.8028370000     0.2040230000    -0.3355400000 
 C        2.2697770000     0.2053980000    -0.0310650000 
 N        3.1431970000    -0.8342960000    -0.5734990000 
 C        3.2567990000     0.5360900000    -1.0737250000 
 C        4.5409260000     1.2405460000    -0.7629660000 
 C        4.4704150000     2.7345350000    -0.8547830000 
 O        3.4971940000     3.3604490000    -1.1761630000 
 H        0.2732210000    -0.5293980000     0.2788620000 
 H        0.6229620000    -0.0392610000    -1.3866150000 
 H        0.3658470000     1.1864640000    -0.1407200000 
 H        2.5242060000     0.4720490000     0.9928440000 
 H        2.6281210000    -1.4077280000    -1.2338830000 
 H        2.8454970000     0.7491490000    -2.0570380000 
 H        5.3480740000     0.9120560000    -1.4332000000 
 H        4.8912990000     0.9760360000     0.2424410000 
 H        5.4184480000     3.2594880000    -0.6027400000 
*
