! RI PBE def2-SVP def2-SVP/J NBO PAL2
% maxcore 2000
% output
    # printlevel mini
    print[ P_Basis ] 0
    print[ P_SCFInfo ] 1
    print[ P_SCFIterInfo ] 1
    print[ P_OrbEn ] 0
    print[ P_Cartesian ] 0
end
*xyz 0 1
 C        1.2723330000    -0.1349470000    -0.0076140000 
 C        2.7242230000     0.0866080000    -0.3036270000 
 N        3.2779850000    -0.2613010000    -1.6031760000 
 C        3.1440550000     1.1512400000    -1.2471740000 
 C        4.4046060000     1.9308480000    -1.0262180000 
 N        5.5289090000     1.1844420000    -1.0616540000 
 O        4.3762260000     3.1245330000    -0.8045270000 
 H        1.0786230000    -1.1845760000     0.2294410000 
 H        0.6507410000     0.1431050000    -0.8631800000 
 H        0.9554410000     0.4660540000     0.8478210000 
 H        3.4040660000    -0.1338430000     0.5156690000 
 H        2.5454130000    -0.5390480000    -2.2477100000 
 H        2.3529190000     1.7418220000    -1.6973600000 
 H        5.4658410000     0.2319620000    -1.3827940000 
 H        6.4177290000     1.6393000000    -0.9542070000 
*
