! RI PBE def2-SVP def2-SVP/J NBO PAL2
% maxcore 2000
% output
    # printlevel mini
    print[ P_Basis ] 0
    print[ P_SCFInfo ] 1
    print[ P_SCFIterInfo ] 1
    print[ P_OrbEn ] 0
    print[ P_Cartesian ] 0
end
*xyz 0 1
 C        0.9715430000     0.0605810000    -0.1413570000 
 C        2.4519590000     0.0099410000     0.0828230000 
 N        3.2763540000    -0.9804590000    -0.5732950000 
 C        3.3882090000     0.4193270000    -0.9963120000 
 C        4.6557620000     1.1038940000    -0.6344540000 
 O        5.0044780000     2.0060930000    -1.5715340000 
 O        5.2911380000     0.9215890000     0.3658300000 
 H        0.4664300000    -0.7040650000     0.4548190000 
 H        0.7246290000    -0.1104230000    -1.1929440000 
 H        0.5645890000     1.0322710000     0.1482510000 
 H        2.7898950000     0.2192920000     1.0943150000 
 H        2.7338070000    -1.4865550000    -1.2674540000 
 H        2.9595380000     0.7112630000    -1.9486880000 
 H        5.8164680000     2.4273620000    -1.2563110000 
*
