! RI PBE def2-SVP def2-SVP/J NBO PAL2
% maxcore 2000
% output
    # printlevel mini
    print[ P_Basis ] 0
    print[ P_SCFInfo ] 1
    print[ P_SCFIterInfo ] 1
    print[ P_OrbEn ] 0
    print[ P_Cartesian ] 0
end
*xyz 0 1
 C        0.8028740000     0.1356740000    -0.2811120000 
 C        2.2937860000     0.0952590000    -0.0586940000 
 N        2.7637590000     0.2474370000     1.2896560000 
 C        3.1209530000    -0.8101160000    -0.9247360000 
 C        3.1791550000     0.6794360000    -1.1226820000 
 C        4.4154440000     1.4465750000    -0.7631040000 
 O        4.1387000000     2.7851990000    -0.3836600000 
 H        0.3049750000    -0.6658350000     0.2743460000 
 H        0.5483470000     0.0165160000    -1.3374600000 
 H        0.3870630000     1.0887500000     0.0606090000 
 H        2.3402900000    -0.4422480000     1.8984300000 
 H        2.5341840000     1.1671190000     1.6481840000 
 H        2.6232670000    -1.4121890000    -1.6753310000 
 H        3.9784580000    -1.2750930000    -0.4531770000 
 H        2.6552110000     1.0559580000    -1.9991160000 
 H        5.1287740000     1.4204070000    -1.5989230000 
 H        4.8924600000     0.9860430000     0.1020940000 
 H        3.7535790000     3.2376370000    -1.1382330000 
*
