! RI PBE def2-SVP def2-SVP/J NBO PAL2
% maxcore 2000
% output
    # printlevel mini
    print[ P_Basis ] 0
    print[ P_SCFInfo ] 1
    print[ P_SCFIterInfo ] 1
    print[ P_OrbEn ] 0
    print[ P_Cartesian ] 0
end
*xyz 0 1
 C        1.0287310000     0.1011570000    -0.0049410000 
 C        2.5307950000     0.0172110000     0.0405810000 
 N        3.2488240000     1.0727310000     0.7975260000 
 C        4.2039170000     0.0565170000     1.2987650000 
 C        3.2671660000    -1.0846430000     0.8499590000 
 C        2.4751550000    -1.6848620000     1.9849100000 
 O        3.8169360000    -2.1583770000     0.1316760000 
 H        0.7148650000     1.0195670000    -0.5079880000 
 H        0.5928720000     0.0982270000     0.9975590000 
 H        0.6100920000    -0.7427730000    -0.5585580000 
 H        2.9206120000     0.0130660000    -0.9880220000 
 H        2.6627980000     1.4010540000     1.5577080000 
 H        4.4522400000     0.1154230000     2.3615060000 
 H        5.1349380000     0.0843190000     0.7211110000 
 H        2.0369140000    -0.9080880000     2.6146640000 
 H        3.1345020000    -2.2975200000     2.6033920000 
 H        1.6729960000    -2.3200470000     1.6038760000 
 H        4.3278860000    -1.8021640000    -0.6010250000 
*
