! RI PBE def2-SVP def2-SVP/J NBO PAL2
% maxcore 2000
% output
    # printlevel mini
    print[ P_Basis ] 0
    print[ P_SCFInfo ] 1
    print[ P_SCFIterInfo ] 1
    print[ P_OrbEn ] 0
    print[ P_Cartesian ] 0
end
*xyz 0 1
 C        0.8871290000    -0.0723440000     0.1955930000 
 C        2.3979740000    -0.0306240000     0.1311110000 
 N        2.9284510000    -0.0772980000    -1.2273080000 
 C        3.1265830000     1.0657460000     0.9368150000 
 C        4.1745690000     0.0296620000     1.3840300000 
 C        3.1865780000    -1.0778030000     0.9754110000 
 O        3.6621750000    -2.2050640000     0.3111020000 
 H        0.4475560000     0.7839780000    -0.3256890000 
 H        0.5325790000    -0.0575160000     1.2296370000 
 H        0.5066690000    -0.9853850000    -0.2738860000 
 H        2.8877550000     0.8366460000    -1.6610090000 
 H        2.3734040000    -0.7039020000    -1.7988240000 
 H        2.5105920000     1.4224010000     1.7642800000 
 H        3.4829090000     1.9289100000     0.3704340000 
 H        4.5122650000     0.0523340000     2.4206300000 
 H        5.0438230000     0.0271150000     0.7245600000 
 H        2.5926260000    -1.4265600000     1.8240760000 
 H        4.0407740000    -1.8674060000    -0.5122550000 
*
