! RI PBE def2-SVP def2-SVP/J NBO PAL2
% maxcore 2000
% output
    # printlevel mini
    print[ P_Basis ] 0
    print[ P_SCFInfo ] 1
    print[ P_SCFIterInfo ] 1
    print[ P_OrbEn ] 0
    print[ P_Cartesian ] 0
end
*xyz 0 1
 C        1.0716790000    -0.0456200000     0.0903460000 
 C        2.5750360000    -0.0635500000     0.0039390000 
 N        3.3011760000     0.9684880000     0.7904630000 
 C        4.2951400000    -0.0529900000     1.2313620000 
 C        5.6120130000     0.0788300000     0.5025560000 
 C        3.3629480000    -1.1680080000     0.7299770000 
 O        3.9758470000    -2.1920960000    -0.0037960000 
 H        0.6687980000     0.8944600000    -0.2958140000 
 H        0.7354620000    -0.1596250000     1.1262030000 
 H        0.6361810000    -0.8579690000    -0.4982750000 
 H        2.8922360000    -0.0031080000    -1.0436550000 
 H        2.7300390000     1.2648740000     1.5746360000 
 H        4.4691710000    -0.0583580000     2.3116640000 
 H        5.4645330000     0.1006380000    -0.5784310000 
 H        6.2708280000    -0.7603180000     0.7363790000 
 H        6.1037560000     1.0078320000     0.7987630000 
 H        2.7688060000    -1.5756420000     1.5601400000 
 H        3.3360520000    -2.8892260000    -0.1640460000 
*
