! RI PBE def2-SVP def2-SVP/J NBO PAL2
% maxcore 2000
% output
    # printlevel mini
    print[ P_Basis ] 0
    print[ P_SCFInfo ] 1
    print[ P_SCFIterInfo ] 1
    print[ P_OrbEn ] 0
    print[ P_Cartesian ] 0
end
*xyz 0 1
 C        0.9840940000     0.0389020000     0.3322360000 
 C        2.3649880000     0.0013550000    -0.2914890000 
 N        3.3353420000     1.0288680000     0.1553800000 
 C        4.1527170000     0.0560760000     0.9197430000 
 C        5.6357730000     0.0556800000     0.6347590000 
 C        3.3021180000    -1.0496850000     0.2987680000 
 O        3.3569910000    -2.2395870000     0.2726120000 
 H        0.4440900000     0.9335550000     0.0116100000 
 H        1.0404090000     0.0432270000     1.4242510000 
 H        0.4044300000    -0.8340350000     0.0247450000 
 H        2.2846620000    -0.0509590000    -1.3833670000 
 H        2.9203570000     1.7557830000     0.7237250000 
 H        3.9740470000     0.0881340000     2.0047850000 
 H        5.8181920000     0.0127610000    -0.4404680000 
 H        6.1106780000    -0.8075960000     1.1065720000 
 H        6.1038210000     0.9625320000     1.0239390000 
*
