! RI PBE def2-SVP def2-SVP/J NBO PAL2
% maxcore 2000
% output
    # printlevel mini
    print[ P_Basis ] 0
    print[ P_SCFInfo ] 1
    print[ P_SCFIterInfo ] 1
    print[ P_OrbEn ] 0
    print[ P_Cartesian ] 0
end
*xyz 0 1
 C        1.1595380000     0.1306290000     0.4619730000 
 C        2.5851570000    -0.0155460000    -0.0652660000 
 N        3.5159130000     1.0348880000     0.3216670000 
 C        4.1367270000     0.6496750000     1.5867140000 
 C        4.3881320000    -0.8358710000     1.3894780000 
 C        3.2298160000    -1.2694510000     0.5154580000 
 O        2.8549910000    -2.3930190000     0.3234850000 
 H        0.6845290000     1.0153660000     0.0308170000 
 H        1.1446620000     0.2304530000     1.5506800000 
 H        0.5656360000    -0.7448550000     0.1920170000 
 H        2.5523650000    -0.1187210000    -1.1554540000 
 H        3.0803210000     1.9458950000     0.3624610000 
 H        3.4862760000     0.8040780000     2.4623840000 
 H        5.0518930000     1.2218390000     1.7498340000 
 H        4.4417140000    -1.4302150000     2.3010800000 
 H        5.3070200000    -1.0027650000     0.8172600000 
*
