! RI PBE def2-SVP def2-SVP/J NBO PAL2
% maxcore 2000
% output
    # printlevel mini
    print[ P_Basis ] 0
    print[ P_SCFInfo ] 1
    print[ P_SCFIterInfo ] 1
    print[ P_OrbEn ] 0
    print[ P_Cartesian ] 0
end
*xyz 0 1
 C        0.9897600000    -0.0181980000    -0.0589210000 
 C        2.4679850000     0.0560460000    -0.0801030000 
 N        3.2087430000     1.1344130000     0.0194320000 
 C        4.5099670000     0.7189660000    -0.0591360000 
 C        4.5787230000    -0.6347580000    -0.2099620000 
 N        3.2691060000    -1.0320380000    -0.2079010000 
 O        2.8350150000    -2.3099850000    -0.4183780000 
 H        0.5978080000     0.9969530000    -0.0390230000 
 H        0.6203360000    -0.5489470000     0.8235780000 
 H        0.6028180000    -0.5348090000    -0.9403530000 
 H        5.3286450000     1.4199630000    -0.0071570000 
 H        5.3863650000    -1.3372500000    -0.3253720000 
 H        2.7793260000    -2.7186460000     0.4549950000 
*
