! RI PBE def2-SVP def2-SVP/J NBO PAL2
% maxcore 2000
% output
    # printlevel mini
    print[ P_Basis ] 0
    print[ P_SCFInfo ] 1
    print[ P_SCFIterInfo ] 1
    print[ P_OrbEn ] 0
    print[ P_Cartesian ] 0
end
*xyz 0 1
 C        1.2139790000     0.1466710000     0.2529460000 
 C        2.6766290000     0.0060720000     0.0624500000 
 N        3.3239170000    -1.0865400000     0.1199650000 
 C        4.7227430000    -0.7627810000    -0.1580700000 
 C        4.8214170000     0.7539400000     0.0098120000 
 N        3.4437130000     1.1347090000    -0.2832920000 
 O        3.0490560000     2.3093040000     0.3781200000 
 H        0.7834210000    -0.8325940000     0.4497760000 
 H        0.7532510000     0.5754990000    -0.6408440000 
 H        0.9990780000     0.8206740000     1.0843610000 
 H        4.9566190000    -1.0585280000    -1.1872800000 
 H        5.3898250000    -1.3179220000     0.5032390000 
 H        5.5244860000     1.2352380000    -0.6706040000 
 H        5.0634060000     1.0375340000     1.0416910000 
 H        2.8983690000     2.9396240000    -0.3324620000 
*
