! RI PBE def2-SVP def2-SVP/J NBO PAL2
% maxcore 2000
% output
    # printlevel mini
    print[ P_Basis ] 0
    print[ P_SCFInfo ] 1
    print[ P_SCFIterInfo ] 1
    print[ P_OrbEn ] 0
    print[ P_Cartesian ] 0
end
*xyz 0 1
 C        1.0697140000    -0.0199840000     0.1392080000 
 C        2.5478110000    -0.0981880000     0.0609240000 
 N        3.2297830000    -1.1749250000     0.0657650000 
 C        4.6226070000    -0.7822810000    -0.0263400000 
 C        4.6478690000     0.7366620000    -0.0875190000 
 O        5.5733970000     1.5006830000    -0.1685360000 
 N        3.3078960000     1.0639380000    -0.0266460000 
 H        0.6626150000    -1.0268310000     0.2011240000 
 H        0.6608820000     0.4805350000    -0.7428690000 
 H        0.7578630000     0.5496580000     1.0189700000 
 H        5.0975710000    -1.2053940000    -0.9165260000 
 H        5.1940590000    -1.1363730000     0.8368580000 
 H        2.9607130000     2.0078000000    -0.0447040000 
*
