! RI PBE def2-SVP def2-SVP/J NBO PAL2
% maxcore 2000
% output
    # printlevel mini
    print[ P_Basis ] 0
    print[ P_SCFInfo ] 1
    print[ P_SCFIterInfo ] 1
    print[ P_OrbEn ] 0
    print[ P_Cartesian ] 0
end
*xyz 0 1
 C        0.9465050000     0.0874310000    -0.0147690000 
 C        2.4284820000     0.1213490000    -0.0193580000 
 N        3.1763260000     1.1883930000    -0.0233930000 
 C        4.4827060000     0.7547190000    -0.0267060000 
 C        4.5045050000    -0.6079900000    -0.0245390000 
 O        5.4669760000    -1.5531460000    -0.0259330000 
 N        3.2025550000    -1.0102720000    -0.0198770000 
 H        0.5824590000     1.1135470000    -0.0151790000 
 H        0.5509910000    -0.4185070000     0.8712900000 
 H        0.5455740000    -0.4211290000    -0.8968850000 
 H        5.3166820000     1.4393910000    -0.0303870000 
 H        6.3236000000    -1.1185180000    -0.0294140000 
 H        2.8923380000    -1.9663680000    -0.0173390000 
*
