! RI PBE def2-SVP def2-SVP/J NBO PAL2
% maxcore 2000
% output
    # printlevel mini
    print[ P_Basis ] 0
    print[ P_SCFInfo ] 1
    print[ P_SCFIterInfo ] 1
    print[ P_OrbEn ] 0
    print[ P_Cartesian ] 0
end
*xyz 0 1
 C        1.0657430000    -0.0048900000     0.0175920000 
 C        2.5360580000    -0.0094840000     0.0176670000 
 N        3.3071090000     1.0050090000     0.0194200000 
 C        4.6284420000     0.4281950000     0.0185420000 
 N        4.7467110000    -0.8415960000     0.0163910000 
 C        3.3964590000    -1.2880370000     0.0155460000 
 O        3.0098800000    -2.4153650000     0.0136250000 
 H        0.6792240000     1.0124800000     0.0192780000 
 H        0.6923400000    -0.5487220000     0.8904420000 
 H        0.6924380000    -0.5457890000    -0.8571210000 
 H        5.4767970000     1.1042070000     0.0197180000 
*
