! RI PBE def2-SVP def2-SVP/J NBO PAL2
% maxcore 2000
% output
    # printlevel mini
    print[ P_Basis ] 0
    print[ P_SCFInfo ] 1
    print[ P_SCFIterInfo ] 1
    print[ P_OrbEn ] 0
    print[ P_Cartesian ] 0
end
*xyz 0 1
 C        0.8409190000     0.1216980000    -0.1969510000 
 C        2.3374420000     0.0495440000    -0.1008290000 
 N        2.9323560000     0.1393660000     1.2070000000 
 C        3.1272580000    -0.8195890000    -1.0757080000 
 N        2.5207580000    -1.5865150000    -2.1153570000 
 C        3.2078880000     0.6735260000    -1.1610810000 
 O        4.3512790000     1.3442690000    -0.7753430000 
 H        0.3684310000    -0.7002820000     0.3524700000 
 H        0.5017330000     0.0681380000    -1.2333450000 
 H        0.4692920000     1.0614880000     0.2232280000 
 H        2.8662280000    -0.7337060000     1.7151590000 
 H        2.4879090000     0.8603170000     1.7628320000 
 H        4.0090340000    -1.2759850000    -0.6297480000 
 H        2.1959460000    -1.0162200000    -2.8821610000 
 H        1.7574760000    -2.1650840000    -1.7920980000 
 H        2.7129490000     1.1476450000    -2.0049610000 
 H        4.4543230000     1.1274110000     0.1657840000 
*
