! RI PBE def2-SVP def2-SVP/J NBO PAL2
% maxcore 2000
% output
    # printlevel mini
    print[ P_Basis ] 0
    print[ P_SCFInfo ] 1
    print[ P_SCFIterInfo ] 1
    print[ P_OrbEn ] 0
    print[ P_Cartesian ] 0
end
*xyz 0 1
 C        0.9863020000    -0.0190710000     0.1397980000 
 C        2.4737600000     0.0360510000    -0.1510110000 
 N        2.8295770000     0.0286530000    -1.5516570000 
 C        3.2684760000     1.0661860000     0.7054060000 
 N        3.8903610000    -0.0693300000     1.3765630000 
 C        3.2976520000    -1.0240640000     0.6156100000 
 O        3.3946830000    -2.2189640000     0.5528060000 
 H        0.4772450000     0.8368940000    -0.3142750000 
 H        0.7820420000    -0.0050320000     1.2133110000 
 H        0.5584360000    -0.9338750000    -0.2765110000 
 H        2.1663170000     0.5623320000    -2.1009480000 
 H        2.8157960000    -0.9235860000    -1.8989700000 
 H        2.6683670000     1.6987410000     1.3644800000 
 H        3.9597600000     1.6667250000     0.1119500000 
 H        4.6345260000    -0.1308600000     2.0535380000 
*
