! RI PBE def2-SVP def2-SVP/J NBO PAL2
% maxcore 2000
% output
    # printlevel mini
    print[ P_Basis ] 0
    print[ P_SCFInfo ] 1
    print[ P_SCFIterInfo ] 1
    print[ P_OrbEn ] 0
    print[ P_Cartesian ] 0
end
*xyz 0 1
 C        0.9511640000     0.0020650000    -0.1634670000 
 C        2.4634540000    -0.0051620000    -0.0335460000 
 N        3.0710220000    -1.2212080000    -0.5648410000 
 C        3.9152910000    -0.8428990000    -1.4343500000 
 N        4.0170600000     0.5247330000    -1.6192340000 
 C        3.1174960000     1.1545710000    -0.7803620000 
 O        2.9230070000     2.3384590000    -0.6935060000 
 H        0.5225660000    -0.8187840000     0.4119660000 
 H        0.6550200000    -0.1183770000    -1.2073740000 
 H        0.5531300000     0.9488150000     0.2046280000 
 H        2.7351980000     0.0850590000     1.0252480000 
 H        4.5375360000    -1.5157180000    -2.0156400000 
 H        4.6091550000     1.0031550000    -2.2766340000 
*
