! RI PBE def2-SVP def2-SVP/J NBO PAL2
% maxcore 2000
% output
    # printlevel mini
    print[ P_Basis ] 0
    print[ P_SCFInfo ] 1
    print[ P_SCFIterInfo ] 1
    print[ P_OrbEn ] 0
    print[ P_Cartesian ] 0
end
*xyz 0 1
 C        0.9965490000    -0.2508930000    -0.0365310000 
 C        2.4547900000    -0.0247700000    -0.0368940000 
 C        3.2583110000     1.0659920000    -0.0404580000 
 C        2.9089120000     2.5071780000    -0.0455700000 
 N        4.5813550000     0.6437540000    -0.0386650000 
 C        4.5110030000    -0.6371280000    -0.0341510000 
 O        3.2616350000    -1.1298650000    -0.0328020000 
 H        0.4719480000     0.7043550000    -0.0399390000 
 H        0.6799760000    -0.8104330000     0.8481650000 
 H        0.6804630000    -0.8164670000    -0.9175590000 
 H        1.8284320000     2.6556480000    -0.0465250000 
 H        3.3240190000     3.0021060000    -0.9271010000 
 H        3.3232990000     3.0081890000     0.8328590000 
 H        5.3192070000    -1.3523660000    -0.0314290000 
*
