! RI PBE def2-SVP def2-SVP/J NBO PAL2
% maxcore 2000
% output
    # printlevel mini
    print[ P_Basis ] 0
    print[ P_SCFInfo ] 1
    print[ P_SCFIterInfo ] 1
    print[ P_OrbEn ] 0
    print[ P_Cartesian ] 0
end
*xyz 0 1
 C        0.9613030000     0.1698900000     0.1235480000 
 C        2.4461160000    -0.0125210000    -0.0779090000 
 N        3.3003420000     0.9648030000     0.5959310000 
 C        4.0098830000     0.0546690000     1.3214550000 
 O        4.9421710000     0.1535820000     2.0706910000 
 C        3.1635510000    -1.1016530000     0.7653630000 
 C        3.9216230000    -2.1917310000     0.0452250000 
 H        0.6030480000     1.0787790000    -0.3670140000 
 H        0.7217820000     0.2396230000     1.1873600000 
 H        0.4121630000    -0.6740510000    -0.3016930000 
 H        2.6835310000    -0.1028080000    -1.1443890000 
 H        3.4279300000     1.9567770000     0.4670960000 
 H        2.5064960000    -1.5149750000     1.5357790000 
 H        4.5696770000    -1.7750340000    -0.7299810000 
 H        3.2408380000    -2.9048350000    -0.4260580000 
 H        4.5537550000    -2.7396270000     0.7468750000 
*
