! RI PBE def2-SVP def2-SVP/J NBO PAL2
% maxcore 2000
% output
    # printlevel mini
    print[ P_Basis ] 0
    print[ P_SCFInfo ] 1
    print[ P_SCFIterInfo ] 1
    print[ P_OrbEn ] 0
    print[ P_Cartesian ] 0
end
*xyz 0 1
 C        0.8370930000    -0.1786610000    -0.0363220000 
 C        2.3138610000    -0.0401040000    -0.0366570000 
 C        3.0855800000     1.0795230000    -0.0396920000 
 N        2.8408800000     2.4174690000    -0.0433050000 
 O        4.3876240000     0.7121380000    -0.0386330000 
 C        4.3504180000    -0.6501090000    -0.0349260000 
 N        3.1684160000    -1.1355660000    -0.0335800000 
 H        0.3458800000     0.7971950000    -0.0387050000 
 H        0.4884400000    -0.7224510000     0.8461360000 
 H        0.4884040000    -0.7267900000    -0.9160810000 
 H        1.9021050000     2.7597540000    -0.0450530000 
 H        3.6007430000     3.0681150000    -0.0456090000 
 H        5.3006460000    -1.1586020000    -0.0334820000 
*
