! RI PBE def2-SVP def2-SVP/J NBO PAL2
% maxcore 2000
% output
    # printlevel mini
    print[ P_Basis ] 0
    print[ P_SCFInfo ] 1
    print[ P_SCFIterInfo ] 1
    print[ P_OrbEn ] 0
    print[ P_Cartesian ] 0
end
*xyz 0 1
 C        0.9394330000    -0.1775820000     0.0400090000 
 C        2.4188240000    -0.0740280000     0.0396520000 
 C        3.2173320000     1.0201660000     0.0362830000 
 O        3.0388600000     2.3436380000     0.0322440000 
 O        4.5073420000     0.6370540000     0.0374190000 
 C        4.4421800000    -0.7175510000     0.0415470000 
 N        3.2509120000    -1.1869030000     0.0430580000 
 H        0.4664300000     0.8081640000     0.0371310000 
 H        0.5816190000    -0.7129610000     0.9231200000 
 H        0.5815410000    -0.7181520000    -0.8399040000 
 H        2.0950860000     2.5271840000     0.0316190000 
 H        5.3814390000    -1.2466290000     0.0431400000 
*
