! RI PBE def2-SVP def2-SVP/J NBO PAL2
% maxcore 2000
% output
    # printlevel mini
    print[ P_Basis ] 0
    print[ P_SCFInfo ] 1
    print[ P_SCFIterInfo ] 1
    print[ P_OrbEn ] 0
    print[ P_Cartesian ] 0
end
*xyz 0 1
 C        0.8314370000    -0.0008040000     0.1565030000 
 C        2.3129840000    -0.0329370000    -0.1197960000 
 N        3.1257860000     0.9340440000     0.6296290000 
 C        3.9989420000     0.0205800000     1.1302700000 
 O        5.0340120000     0.0975220000     1.7341990000 
 C        3.1639760000    -1.1364830000     0.5535170000 
 O        3.8280910000    -1.9920860000    -0.3249220000 
 H        0.3808630000     0.9235430000    -0.2135730000 
 H        0.6329070000    -0.0704690000     1.2286420000 
 H        0.3361820000    -0.8356400000    -0.3447110000 
 H        2.5237690000    -0.0047250000    -1.1930710000 
 H        3.1795470000     1.9404860000     0.5856920000 
 H        2.6046470000    -1.6810870000     1.3256330000 
 H        4.6622580000    -2.2440650000     0.0844780000 
*
