! RI PBE def2-SVP def2-SVP/J NBO PAL2
% maxcore 2000
% output
    # printlevel mini
    print[ P_Basis ] 0
    print[ P_SCFInfo ] 1
    print[ P_SCFIterInfo ] 1
    print[ P_OrbEn ] 0
    print[ P_Cartesian ] 0
end
*xyz 0 1
 C        0.9764560000     0.0528780000     0.0438370000 
 C        2.4535370000     0.0164200000     0.0447390000 
 N        3.1402200000    -1.0642630000     0.0452940000 
 C        4.5119990000    -0.6495900000     0.0454160000 
 O        5.4462680000    -1.3946560000     0.0469870000 
 C        4.5591390000     0.8580900000     0.0465050000 
 C        3.2960420000     1.2612470000     0.0452420000 
 H        0.5648860000    -0.9542690000     0.0436650000 
 H        0.6157020000     0.5996660000    -0.8335850000 
 H        0.6146740000     0.5997910000     0.9207540000 
 H        5.4739210000     1.4312290000     0.0476370000 
 H        2.9053560000     2.2701580000     0.0450990000 
*
