! RI PBE def2-SVP def2-SVP/J NBO PAL2
% maxcore 2000
% output
    # printlevel mini
    print[ P_Basis ] 0
    print[ P_SCFInfo ] 1
    print[ P_SCFIterInfo ] 1
    print[ P_OrbEn ] 0
    print[ P_Cartesian ] 0
end
*xyz 0 1
 C        1.0269930000    -0.0667740000    -0.2262850000 
 C        2.5325530000     0.0117370000    -0.0216900000 
 N        3.1449330000     0.3137970000    -1.3132840000 
 C        3.0744670000    -1.2525790000     0.6927610000 
 O        4.0498750000    -0.8201480000     1.6500560000 
 C        3.8395570000     0.5099400000     1.8151470000 
 C        2.9741980000     1.0586570000     0.9715480000 
 H        0.7686400000    -0.8985250000    -0.8905040000 
 H        0.6645600000     0.8537970000    -0.6863250000 
 H        0.5092330000    -0.2158990000     0.7219970000 
 H        2.9142040000    -0.3965240000    -1.9995610000 
 H        4.1533760000     0.3516910000    -1.2273320000 
 H        3.5525660000    -1.9532140000     0.0059340000 
 H        2.2786280000    -1.7676220000     1.2409420000 
 H        4.4150000000     0.9634000000     2.6112480000 
 H        2.7033170000     2.1018770000     0.9174590000 
*
