! RI PBE def2-SVP def2-SVP/J NBO PAL2
% maxcore 2000
% output
    # printlevel mini
    print[ P_Basis ] 0
    print[ P_SCFInfo ] 1
    print[ P_SCFIterInfo ] 1
    print[ P_OrbEn ] 0
    print[ P_Cartesian ] 0
end
*xyz 0 1
 C        0.8933970000     0.0822490000    -0.1267460000 
 C        2.3896080000     0.0261540000     0.1514850000 
 N        2.7935400000    -1.1383410000     0.8940310000 
 C        3.4594870000    -0.8497590000     2.0545390000 
 O        3.9216790000    -1.6472470000     2.8390080000 
 C        3.4781380000     0.6363270000     2.1206530000 
 C        2.8760970000     1.1296510000     1.0436520000 
 H        0.5838840000    -0.7626930000    -0.7459250000 
 H        0.6380130000     1.0000160000    -0.6614100000 
 H        0.3312460000     0.0521690000     0.8084510000 
 H        2.9291530000     0.0790040000    -0.8066190000 
 H        2.6696050000    -2.0838390000     0.5783590000 
 H        3.9272750000     1.1724580000     2.9437090000 
 H        2.7231680000     2.1723310000     0.7962140000 
*
