! RI PBE def2-SVP def2-SVP/J NBO PAL2
% maxcore 2000
% output
    # printlevel mini
    print[ P_Basis ] 0
    print[ P_SCFInfo ] 1
    print[ P_SCFIterInfo ] 1
    print[ P_OrbEn ] 0
    print[ P_Cartesian ] 0
end
*xyz 0 1
 C        1.0453040000     0.0818080000    -0.0518230000 
 C        2.5104570000    -0.0200990000    -0.0509500000 
 N        3.1923840000    -1.1010390000    -0.0525950000 
 C        4.5401140000    -0.6670840000    -0.0501470000 
 O        5.5193640000    -1.3482500000    -0.0514400000 
 C        4.4702800000     0.8594860000    -0.0484350000 
 N        3.2629160000     1.2387260000    -0.0481690000 
 H        0.5817490000    -0.9014800000    -0.0538910000 
 H        0.7256090000     0.6581030000    -0.9254740000 
 H        0.7243050000     0.6550650000     0.8233450000 
 H        5.3248170000     1.5272460000    -0.0470120000 
*
