! RI PBE def2-SVP def2-SVP/J NBO PAL2
% maxcore 2000
% output
    # printlevel mini
    print[ P_Basis ] 0
    print[ P_SCFInfo ] 1
    print[ P_SCFIterInfo ] 1
    print[ P_OrbEn ] 0
    print[ P_Cartesian ] 0
end
*xyz 0 1
 C        0.9704060000    -0.0312490000    -0.0858380000 
 C        2.2865120000    -0.0437720000     0.1343710000 
 N        3.1564750000    -1.0936950000     0.3002600000 
 C        4.4463420000    -0.6239170000     0.5068390000 
 O        5.4239090000    -1.2912930000     0.6829250000 
 N        4.3925810000     0.8086540000     0.4695310000 
 C        3.1719300000     1.1185130000     0.2596060000 
 H        0.3816680000    -0.9360670000    -0.1665400000 
 H        0.4603700000     0.9168800000    -0.1896050000 
 H        2.9305170000    -2.0717870000     0.2815000000 
 H        2.8284900000     2.1452440000     0.1820520000 
*
