! RI PBE def2-SVP def2-SVP/J NBO PAL2
% maxcore 2000
% output
    # printlevel mini
    print[ P_Basis ] 0
    print[ P_SCFInfo ] 1
    print[ P_SCFIterInfo ] 1
    print[ P_OrbEn ] 0
    print[ P_Cartesian ] 0
end
*xyz 0 1
 C        1.1221500000    -0.0198010000    -0.0197020000 
 C        2.5961150000    -0.0713030000    -0.0199150000 
 N        3.3063470000    -1.1282370000    -0.0190360000 
 C        4.6680110000    -0.6559920000    -0.0197370000 
 O        5.6288260000    -1.3497210000    -0.0192250000 
 N        4.7180970000     0.8042440000    -0.0211170000 
 C        3.4985000000     1.1436550000    -0.0212280000 
 H        0.6987560000    -1.0221320000    -0.0186610000 
 H        0.7655010000     0.5286970000    -0.8975700000 
 H        0.7658120000     0.5303910000     0.8572310000 
 H        3.1680750000     2.1789890000    -0.0221500000 
*
