! RI PBE def2-SVP def2-SVP/J NBO PAL2
% maxcore 2000
% output
    # printlevel mini
    print[ P_Basis ] 0
    print[ P_SCFInfo ] 1
    print[ P_SCFIterInfo ] 1
    print[ P_OrbEn ] 0
    print[ P_Cartesian ] 0
end
*xyz 0 1
 C        0.9433260000     0.0067270000    -0.0792850000 
 C        2.4234810000     0.1041590000    -0.0835800000 
 C        3.2632270000     1.1947030000    -0.0835330000 
 O        2.9325780000     2.5147430000    -0.0793780000 
 C        4.6013870000     0.7369490000    -0.0887610000 
 C        4.5469380000    -0.6328500000    -0.0918920000 
 N        3.2389570000    -1.0037950000    -0.0887430000 
 H        0.4903800000     1.0010870000    -0.0761570000 
 H        0.5612800000    -0.5142110000     0.8054330000 
 H        0.5560050000    -0.5109870000    -0.9635980000 
 H        1.9760200000     2.5993990000    -0.0756080000 
 H        5.4879900000     1.3501640000    -0.0900170000 
 H        5.3384370000    -1.3643870000    -0.0960840000 
 H        2.9089060000    -1.9507900000    -0.0899880000 
*
