! RI PBE def2-SVP def2-SVP/J NBO PAL2
% maxcore 2000
% output
    # printlevel mini
    print[ P_Basis ] 0
    print[ P_SCFInfo ] 1
    print[ P_SCFIterInfo ] 1
    print[ P_OrbEn ] 0
    print[ P_Cartesian ] 0
end
*xyz 0 1
 C        0.9852280000    -0.1495660000    -0.0118130000 
 C        2.4629870000    -0.0373580000    -0.0121330000 
 C        3.3213930000     1.0344100000    -0.0151660000 
 O        3.0439820000     2.3566830000    -0.0188840000 
 N        4.6179700000     0.6435360000    -0.0140500000 
 C        4.5794750000    -0.6649670000    -0.0103780000 
 N        3.3117070000    -1.1272300000    -0.0090600000 
 H        0.5272640000     0.8420580000    -0.0141260000 
 H        0.6058720000    -0.6698690000     0.8740980000 
 H        0.6057650000    -0.6740840000    -0.8951920000 
 H        2.0913140000     2.4772420000    -0.0195230000 
 H        5.4386720000    -1.3185240000    -0.0085340000 
 H        3.0298510000    -2.0914320000    -0.0063300000 
*
