! RI PBE def2-SVP def2-SVP/J NBO PAL2
% maxcore 2000
% output
    # printlevel mini
    print[ P_Basis ] 0
    print[ P_SCFInfo ] 1
    print[ P_SCFIterInfo ] 1
    print[ P_OrbEn ] 0
    print[ P_Cartesian ] 0
end
*xyz 0 1
 C        1.0145560000    -0.0954920000    -0.0061940000 
 C        2.4938250000     0.0181100000    -0.0106230000 
 C        3.3319960000     1.1132220000    -0.0101950000 
 O        3.0285470000     2.4354940000    -0.0054870000 
 C        4.6376020000     0.5940280000    -0.0158780000 
 N        4.6196500000    -0.7289170000    -0.0196150000 
 N        3.3313870000    -1.0517680000    -0.0163800000 
 H        0.5526300000     0.8944840000    -0.0026100000 
 H        0.6448290000    -0.6223400000     0.8785190000 
 H        0.6392940000    -0.6184620000    -0.8908740000 
 H        2.0743790000     2.5454300000    -0.0014960000 
 H        5.5715380000     1.1346790000    -0.0173500000 
 H        3.0709660000    -2.0217680000    -0.0183070000 
*
