! RI PBE def2-SVP def2-SVP/J NBO PAL2
% maxcore 2000
% output
    # printlevel mini
    print[ P_Basis ] 0
    print[ P_SCFInfo ] 1
    print[ P_SCFIterInfo ] 1
    print[ P_OrbEn ] 0
    print[ P_Cartesian ] 0
end
*xyz 0 1
 C        1.1238180000     0.1277600000     0.0156180000 
 C        2.5974640000     0.1155760000     0.0104250000 
 N        3.4107800000     1.1102460000     0.0092160000 
 N        4.6876530000     0.5761800000     0.0038870000 
 C        4.5505990000    -0.7013430000     0.0021930000 
 C        5.5940850000    -1.7419760000    -0.0032200000 
 O        3.2472650000    -1.0741320000     0.0061270000 
 H        0.7831840000     1.1612850000     0.0185170000 
 H        0.7329880000    -0.3817640000     0.8993450000 
 H        0.7267890000    -0.3788540000    -0.8670170000 
 H        6.5691200000    -1.2587440000    -0.0058300000 
 H        5.5058760000    -2.3777300000    -0.8871720000 
 H        5.5120780000    -2.3806950000     0.8791900000 
*
