! RI PBE def2-SVP def2-SVP/J NBO PAL2
% maxcore 2000
% output
    # printlevel mini
    print[ P_Basis ] 0
    print[ P_SCFInfo ] 1
    print[ P_SCFIterInfo ] 1
    print[ P_OrbEn ] 0
    print[ P_Cartesian ] 0
end
*xyz 0 1
 C        1.0880870000     0.0063450000     0.0948110000 
 C        2.5711840000     0.0611920000     0.0859530000 
 N        3.1812820000     1.1787080000     0.0985030000 
 N        4.5892400000     1.1748020000     0.0897700000 
 C        5.1898520000     0.0618290000     0.0691510000 
 C        4.5343600000    -1.2754770000     0.0529610000 
 O        3.1150640000    -1.1694400000     0.0643820000 
 H        0.6891600000     1.0171700000     0.1119640000 
 H        0.7394520000    -0.5473940000     0.9699960000 
 H        0.7279530000    -0.5221150000    -0.7912700000 
 H        6.2787310000     0.0860620000     0.0627930000 
 H        4.8407600000    -1.8667510000     0.9244240000 
 H        4.8286950000    -1.8395410000    -0.8404390000 
*
