! RI PBE def2-SVP def2-SVP/J NBO PAL2
% maxcore 2000
% output
    # printlevel mini
    print[ P_Basis ] 0
    print[ P_SCFInfo ] 1
    print[ P_SCFIterInfo ] 1
    print[ P_OrbEn ] 0
    print[ P_Cartesian ] 0
end
*xyz 0 1
 C        1.0291780000    -0.1053910000     0.0023460000 
 C        2.5045480000    -0.0297520000    -0.1026870000 
 N        3.2351270000    -1.0776900000    -0.1953160000 
 N        4.5457250000    -0.6726360000    -0.2759020000 
 C        4.7341790000     0.6803340000    -0.2391030000 
 O        5.7845250000     1.2702490000    -0.2937760000 
 C        3.3184880000     1.2242720000    -0.1152150000 
 H        0.7066360000    -1.1461700000    -0.0131870000 
 H        0.5499440000     0.4271290000    -0.8249010000 
 H        0.6781050000     0.3612370000     0.9278680000 
 H        5.2700660000    -1.3645930000    -0.3547920000 
 H        3.0853100000     1.8836950000    -0.9557300000 
 H        3.2134590000     1.8180070000     0.7969960000 
*
