! RI PBE def2-SVP def2-SVP/J NBO PAL2
% maxcore 2000
% output
    # printlevel mini
    print[ P_Basis ] 0
    print[ P_SCFInfo ] 1
    print[ P_SCFIterInfo ] 1
    print[ P_OrbEn ] 0
    print[ P_Cartesian ] 0
end
*xyz 0 1
 C        1.2224130000     0.0885520000    -0.0563480000 
 C        2.6965860000     0.1715010000    -0.0585030000 
 C        3.5850750000     1.1981340000    -0.0591380000 
 C        3.3947970000     2.6676820000    -0.0578470000 
 N        4.8310300000     0.6194470000    -0.0613110000 
 N        4.7458130000    -0.6254860000    -0.0621800000 
 O        3.3889670000    -0.9679410000    -0.0602780000 
 H        0.7864320000     1.0869000000    -0.0550410000 
 H        0.8656710000    -0.4478400000     0.8260630000 
 H        0.8630290000    -0.4466820000    -0.9383910000 
 H        2.3349200000     2.9238800000    -0.0561030000 
 H        3.8532240000     3.1212720000    -0.9393440000 
 H        3.8558320000     3.1200610000     0.8229120000 
*
