! RI PBE def2-SVP def2-SVP/J NBO PAL2
% maxcore 2000
% output
    # printlevel mini
    print[ P_Basis ] 0
    print[ P_SCFInfo ] 1
    print[ P_SCFIterInfo ] 1
    print[ P_OrbEn ] 0
    print[ P_Cartesian ] 0
end
*xyz 0 1
 C        1.1784970000    -0.0317060000    -0.0574930000 
 C        2.6500250000     0.1240930000     0.0423210000 
 N        3.2311300000     1.1943430000    -0.3481690000 
 O        4.5906740000     1.1135230000    -0.0833550000 
 C        4.8837060000    -0.1540000000     0.4409310000 
 C        4.6252650000    -1.3293420000    -0.4295430000 
 C        3.5808200000    -0.8880270000     0.5759170000 
 H        0.7298620000     0.8735670000    -0.4643910000 
 H        0.7479550000    -0.2276050000     0.9291050000 
 H        0.9189480000    -0.8800330000    -0.6971170000 
 H        5.6796520000    -0.1410560000     1.1739690000 
 H        5.1706190000    -2.2333390000    -0.1910020000 
 H        4.4234380000    -1.1625130000    -1.4805060000 
 H        3.2989110000    -1.5285950000     1.4020240000 
*
