! RI PBE def2-SVP def2-SVP/J NBO PAL2
% maxcore 2000
% output
    # printlevel mini
    print[ P_Basis ] 0
    print[ P_SCFInfo ] 1
    print[ P_SCFIterInfo ] 1
    print[ P_OrbEn ] 0
    print[ P_Cartesian ] 0
end
*xyz 0 1
 C        0.9825760000     0.0376690000     0.1173980000 
 C        2.4498370000     0.1145290000    -0.0782330000 
 N        3.1449520000    -0.9266330000    -0.3509840000 
 O        4.4709000000    -0.6014590000    -0.4850200000 
 C        4.6452610000     0.8061040000    -0.2747560000 
 C        3.2690550000     1.3172780000     0.0063940000 
 C        2.8621140000     2.5563910000     0.2714450000 
 H        0.6428860000    -0.9896780000    -0.0057800000 
 H        0.4619630000     0.6724280000    -0.6050240000 
 H        0.7066070000     0.3850880000     1.1168930000 
 H        5.0872060000     1.2390080000    -1.1769550000 
 H        5.3347650000     0.9485120000     0.5624850000 
 H        3.5519910000     3.3907960000     0.3129210000 
 H        1.8164950000     2.7713650000     0.4560060000 
*
