! RI PBE def2-SVP def2-SVP/J NBO PAL2
% maxcore 2000
% output
    # printlevel mini
    print[ P_Basis ] 0
    print[ P_SCFInfo ] 1
    print[ P_SCFIterInfo ] 1
    print[ P_OrbEn ] 0
    print[ P_Cartesian ] 0
end
*xyz 0 1
 C        1.0093400000    -0.0329830000     0.1516930000 
 C        2.4538080000     0.0722410000    -0.1615200000 
 N        3.1344110000    -0.9212860000    -0.5721310000 
 O        4.4438510000    -0.5419150000    -0.8140980000 
 C        4.6395900000     0.7635310000    -0.2643150000 
 C        3.2417860000     1.3621390000    -0.1498070000 
 N        2.7615760000     2.2216410000    -1.2176580000 
 H        0.6426840000    -1.0335870000    -0.0741680000 
 H        0.4481260000     0.7028650000    -0.4291920000 
 H        0.8262710000     0.1798890000     1.2093050000 
 H        5.3035860000     1.3214880000    -0.9266480000 
 H        5.1075330000     0.6569670000     0.7216400000 
 H        3.1155250000     1.9009660000     0.7925600000 
 H        2.9325890000     1.7979350000    -2.1220310000 
 H        3.2280340000     3.1193870000    -1.2012410000 
*
