! RI PBE def2-SVP def2-SVP/J NBO PAL2
% maxcore 2000
% output
    # printlevel mini
    print[ P_Basis ] 0
    print[ P_SCFInfo ] 1
    print[ P_SCFIterInfo ] 1
    print[ P_OrbEn ] 0
    print[ P_Cartesian ] 0
end
*xyz 0 1
 C        1.0436360000     0.1418500000     0.0654490000 
 C        2.5326420000     0.0592100000     0.1424950000 
 N        3.1368800000     1.1461140000     0.4259120000 
 O        4.5136550000     1.1531310000     0.5012850000 
 C        5.1901740000     0.0812520000    -0.1322780000 
 C        4.6410200000    -1.2524050000     0.3110800000 
 C        3.1732020000    -1.2807800000    -0.0721660000 
 H        0.7138750000     1.1659320000     0.2340310000 
 H        0.5810440000    -0.5111300000     0.8122270000 
 H        0.6885950000    -0.1903470000    -0.9153850000 
 H        6.2381260000     0.2166900000     0.1387090000 
 H        5.0929770000     0.1908160000    -1.2220390000 
 H        4.7573420000    -1.3429590000     1.3944910000 
 H        5.1931800000    -2.0737710000    -0.1512610000 
 H        2.6177080000    -2.0247050000     0.5077510000 
 H        3.0462340000    -1.5677090000    -1.1230020000 
*
