! RI PBE def2-SVP def2-SVP/J NBO PAL2
% maxcore 2000
% output
    # printlevel mini
    print[ P_Basis ] 0
    print[ P_SCFInfo ] 1
    print[ P_SCFIterInfo ] 1
    print[ P_OrbEn ] 0
    print[ P_Cartesian ] 0
end
*xyz 0 1
 C        0.9352590000    -0.0458550000    -0.0521380000 
 C        2.4267240000    -0.0582170000    -0.0616390000 
 N        3.0097950000     1.0772420000    -0.0696950000 
 O        4.3816550000     1.1371090000    -0.0786630000 
 C        5.2104600000    -0.0356100000    -0.0801970000 
 C        4.4690110000    -1.3213460000    -0.0700930000 
 C        3.1443470000    -1.3297460000    -0.0612980000 
 H        0.5693810000     0.9797010000    -0.0536890000 
 H        0.5501850000    -0.5610990000     0.8333620000 
 H        0.5388950000    -0.5677900000    -0.9286920000 
 H        5.8682570000     0.0328770000     0.7970890000 
 H        5.8558190000     0.0262030000    -0.9671810000 
 H        5.0537950000    -2.2353610000    -0.0703220000 
 H        2.5751860000    -2.2519170000    -0.0538450000 
*
