! RI PBE def2-SVP def2-SVP/J NBO PAL2
% maxcore 2000
% output
    # printlevel mini
    print[ P_Basis ] 0
    print[ P_SCFInfo ] 1
    print[ P_SCFIterInfo ] 1
    print[ P_OrbEn ] 0
    print[ P_Cartesian ] 0
end
*xyz 0 1
 C        1.1211590000    -0.0643400000     0.0424950000 
 C        2.5916340000     0.0283540000    -0.1085700000 
 N        3.2996330000    -1.0165200000    -0.2896750000 
 O        4.6513890000    -0.6472020000    -0.4002540000 
 C        4.7905810000     0.7053730000    -0.2809810000 
 O        5.8459420000     1.2502550000    -0.3416200000 
 C        3.4069650000     1.2684900000    -0.0739990000 
 H        0.8028210000    -1.1039190000    -0.0262320000 
 H        0.6173220000     0.5167100000    -0.7349300000 
 H        0.8072390000     0.3433690000     1.0074240000 
 H        3.1563800000     1.9797470000    -0.8653870000 
 H        3.3462360000     1.8063820000     0.8757190000 
*
