! RI PBE def2-SVP def2-SVP/J NBO PAL2
% maxcore 2000
% output
    # printlevel mini
    print[ P_Basis ] 0
    print[ P_SCFInfo ] 1
    print[ P_SCFIterInfo ] 1
    print[ P_OrbEn ] 0
    print[ P_Cartesian ] 0
end
*xyz 0 1
 C        1.0184110000    -0.0989130000    -0.0052610000 
 C        2.5063460000     0.0032430000    -0.1144650000 
 O        3.0617290000    -0.0908680000    -1.4221070000 
 C        3.1774060000     1.1449040000    -0.7326010000 
 C        4.5449960000     1.5721320000    -0.3481500000 
 C        5.1822100000     2.6915260000    -1.0676830000 
 N        4.7263040000     2.8627700000     0.3076740000 
 H        0.6949530000    -1.1363420000    -0.1205530000 
 H        0.5322910000     0.4986820000    -0.7785770000 
 H        0.6817910000     0.2524210000     0.9735890000 
 H        3.0745240000    -0.5493290000     0.6345110000 
 H        2.5475690000     1.9428190000    -1.1353780000 
 H        5.1733060000     0.7773280000     0.0442810000 
 H        4.6161460000     3.1583870000    -1.8684510000 
 H        6.2583220000     2.7058910000    -1.1996580000 
 H        3.8481140000     3.3724400000     0.3289210000 
*
