! RI PBE def2-SVP def2-SVP/J NBO PAL2
% maxcore 2000
% output
    # printlevel mini
    print[ P_Basis ] 0
    print[ P_SCFInfo ] 1
    print[ P_SCFIterInfo ] 1
    print[ P_OrbEn ] 0
    print[ P_Cartesian ] 0
end
*xyz 0 1
 C        0.5660610000     0.1076630000    -0.4348600000 
 C        1.9453450000     0.1771380000     0.1402570000 
 O        2.7422550000    -0.9962840000     0.0328260000 
 C        3.1487810000     0.1651580000    -0.6861460000 
 C        4.4377890000     0.7991530000    -0.2617260000 
 C        5.6504930000     0.0056010000    -0.7185800000 
 N        6.8764720000     0.6466760000    -0.2706810000 
 H       -0.0965680000    -0.4622060000     0.2213500000 
 H        0.5805690000    -0.3782320000    -1.4119960000 
 H        0.1464750000     1.1108950000    -0.5480380000 
 H        2.0250280000     0.6638600000     1.1130090000 
 H        3.0021430000     0.0741670000    -1.7641980000 
 H        4.4636880000     0.8955240000     0.8269770000 
 H        4.4837320000     1.8135860000    -0.6787180000 
 H        5.5961510000    -0.1361080000    -1.8107650000 
 H        5.6028570000    -0.9908800000    -0.2704540000 
 H        7.0018660000     1.5370650000    -0.7375740000 
 H        7.6820840000     0.0789150000    -0.5001810000 
*
