! RI PBE def2-SVP def2-SVP/J NBO PAL2
% maxcore 2000
% output
    # printlevel mini
    print[ P_Basis ] 0
    print[ P_SCFInfo ] 1
    print[ P_SCFIterInfo ] 1
    print[ P_OrbEn ] 0
    print[ P_Cartesian ] 0
end
*xyz 0 1
 C        1.0505570000     0.1253470000    -0.1082950000 
 C        2.5442090000     0.1797920000    -0.0497860000 
 O        3.2561740000    -0.7415840000    -0.8586970000 
 C        3.3530090000     0.6490790000    -1.1781550000 
 C        4.6710320000     1.2650910000    -0.9870160000 
 N        5.0993450000     2.1152960000    -1.8265330000 
 N        6.2796220000     2.7307900000    -1.5876670000 
 H        0.6749410000    -0.7267080000     0.4639890000 
 H        0.7093580000     0.0233850000    -1.1397770000 
 H        0.6182790000     1.0350360000     0.3161700000 
 H        2.9716710000     0.3013330000     0.9466240000 
 H        2.8416240000     0.9493470000    -2.0902350000 
 H        5.2508690000     0.9591190000    -0.1069950000 
 H        6.9307450000     2.2236570000    -0.9952870000 
 H        6.6994660000     3.0527410000    -2.4445500000 
*
