! RI PBE def2-SVP def2-SVP/J NBO PAL2
% maxcore 2000
% output
    # printlevel mini
    print[ P_Basis ] 0
    print[ P_SCFInfo ] 1
    print[ P_SCFIterInfo ] 1
    print[ P_OrbEn ] 0
    print[ P_Cartesian ] 0
end
*xyz 0 1
 C        0.9285780000     0.0034880000     0.1365360000 
 C        2.4022360000    -0.2107380000    -0.0597370000 
 O        3.1987790000     0.8861900000     0.4397360000 
 C        4.0425870000    -0.0080830000     1.1720870000 
 C        3.1432970000    -1.2030120000     0.8480350000 
 C        3.7743410000    -2.4107560000     0.2015740000 
 N        2.7452070000    -3.3156500000    -0.2877950000 
 H        0.5918070000     0.8802150000    -0.4219890000 
 H        0.6971320000     0.1602530000     1.1929210000 
 H        0.3760100000    -0.8680190000    -0.2236330000 
 H        2.6219880000    -0.3886320000    -1.1211680000 
 H        4.1331930000     0.2804770000     2.2234570000 
 H        5.0469770000    -0.0729880000     0.7331250000 
 H        2.5287560000    -1.5075290000     1.7016780000 
 H        4.4786770000    -2.8746180000     0.9118560000 
 H        4.3693870000    -2.0800010000    -0.6567220000 
 H        2.2258670000    -3.7131860000     0.4859640000 
 H        3.1546890000    -4.0886120000    -0.7965260000 
*
