! RI PBE def2-SVP def2-SVP/J NBO PAL2
% maxcore 2000
% output
    # printlevel mini
    print[ P_Basis ] 0
    print[ P_SCFInfo ] 1
    print[ P_SCFIterInfo ] 1
    print[ P_OrbEn ] 0
    print[ P_Cartesian ] 0
end
*xyz 0 1
 C        0.9988420000     0.1559440000     0.0006490000 
 C        2.4921680000    -0.0022140000    -0.0120610000 
 O        3.1816070000     1.0064240000     0.7437560000 
 C        4.1344600000     0.0438590000     1.2100950000 
 C        3.2293050000    -1.1203360000     0.7834160000 
 C        2.4333240000    -1.6936310000     1.9352240000 
 N        3.8895740000    -2.1882030000     0.0775540000 
 H        0.7180830000     1.0978540000    -0.4770180000 
 H        0.6049460000     0.1602670000     1.0178810000 
 H        0.5246570000    -0.6560770000    -0.5577650000 
 H        2.8571650000     0.0001790000    -1.0527730000 
 H        4.3515430000     0.1541790000     2.2762670000 
 H        5.0712940000     0.0880570000     0.6390290000 
 H        1.9927540000    -0.9014140000     2.5421210000 
 H        3.0894070000    -2.2932110000     2.5698480000 
 H        1.6232110000    -2.3364910000     1.5772160000 
 H        4.3217480000    -1.8569100000    -0.7764260000 
 H        3.2400210000    -2.9250670000    -0.1684220000 
*
