! RI PBE def2-SVP def2-SVP/J NBO PAL2
% maxcore 2000
% output
    # printlevel mini
    print[ P_Basis ] 0
    print[ P_SCFInfo ] 1
    print[ P_SCFIterInfo ] 1
    print[ P_OrbEn ] 0
    print[ P_Cartesian ] 0
end
*xyz 0 1
 C        1.0408430000    -0.0220800000     0.0175980000 
 C        2.5306340000    -0.1601390000    -0.0770710000 
 O        3.2471650000     0.8802580000     0.6086380000 
 C        4.1423450000    -0.0624210000     1.1998230000 
 C        3.2329060000    -1.2333910000     0.7889220000 
 C        3.8250240000    -2.3707390000     0.1253170000 
 N        4.3010390000    -3.2662330000    -0.4175630000 
 H        0.7176980000     0.8934520000    -0.4824920000 
 H        0.7198810000     0.0225430000     1.0604050000 
 H        0.5510520000    -0.8683440000    -0.4707850000 
 H        2.8555420000    -0.2205420000    -1.1234000000 
 H        4.2718660000     0.0998050000     2.2714720000 
 H        5.1178130000    -0.0756000000     0.7027930000 
 H        2.5951020000    -1.5732880000     1.6072360000 
*
