! RI PBE def2-SVP def2-SVP/J NBO PAL2
% maxcore 2000
% output
    # printlevel mini
    print[ P_Basis ] 0
    print[ P_SCFInfo ] 1
    print[ P_SCFIterInfo ] 1
    print[ P_OrbEn ] 0
    print[ P_Cartesian ] 0
end
*xyz 0 1
 C        1.0222570000     0.4253830000     0.4325080000 
 C        2.2529090000    -0.1707400000    -0.2054960000 
 O        1.9028220000    -1.4117560000    -0.8088730000 
 C        2.8513250000    -1.6953960000    -1.8203820000 
 C        3.2617540000    -0.3502470000    -2.3634000000 
 N        2.1866020000     0.5979790000    -2.6106220000 
 C        2.8768480000     0.6273600000    -1.3300310000 
 H        0.5978530000    -0.2673840000     1.1611390000 
 H        0.2611120000     0.6420580000    -0.3203120000 
 H        1.2747830000     1.3549640000     0.9470700000 
 H        3.0263540000    -0.3352690000     0.5628360000 
 H        2.3690730000    -2.3487160000    -2.5529000000 
 H        3.7303030000    -2.2168150000    -1.4127890000 
 H        4.1475580000    -0.2608420000    -2.9817740000 
 H        1.2857980000     0.1354210000    -2.5119200000 
 H        3.4477500000     1.5205010000    -1.1019450000 
*
