! RI PBE def2-SVP def2-SVP/J NBO PAL2
% maxcore 2000
% output
    # printlevel mini
    print[ P_Basis ] 0
    print[ P_SCFInfo ] 1
    print[ P_SCFIterInfo ] 1
    print[ P_OrbEn ] 0
    print[ P_Cartesian ] 0
end
*xyz 0 1
 C        1.1714010000     0.0518690000     0.1882180000 
 C        2.3543790000    -0.0539140000    -0.4041760000 
 O        2.7038780000    -1.1342020000    -1.1669360000 
 C        4.1244560000    -1.2101040000    -1.2700080000 
 C        4.6300750000     0.1733340000    -0.9659180000 
 N        4.0239630000     1.2635440000    -1.6985070000 
 C        3.4776590000     0.9043910000    -0.3880180000 
 H        0.4450330000    -0.7478480000     0.1371690000 
 H        0.9170960000     0.9570970000     0.7211200000 
 H        4.3666500000    -1.5600950000    -2.2770810000 
 H        4.5133070000    -1.9314100000    -0.5416300000 
 H        5.6520380000     0.3125910000    -0.6336200000 
 H        3.4201900000     0.9173070000    -2.4396890000 
 H        3.5492740000     1.6496310000     0.3931740000 
*
