! RI PBE def2-SVP def2-SVP/J NBO PAL2
% maxcore 2000
% output
    # printlevel mini
    print[ P_Basis ] 0
    print[ P_SCFInfo ] 1
    print[ P_SCFIterInfo ] 1
    print[ P_OrbEn ] 0
    print[ P_Cartesian ] 0
end
*xyz 0 1
 C        1.0122160000    -0.0462480000     0.0597960000 
 C        2.4772820000     0.1383140000     0.0561660000 
 C        3.2847140000     1.2372070000     0.0581830000 
 N        2.9235500000     2.5634540000     0.0645080000 
 C        4.6293020000     0.7451230000     0.0521600000 
 C        4.5346360000    -0.6040920000     0.0469860000 
 O        3.2498700000    -0.9934960000     0.0492690000 
 H        0.5098620000     0.9229350000     0.0648670000 
 H        0.6712500000    -0.5978910000     0.9420360000 
 H        0.6660910000    -0.5912920000    -0.8245300000 
 H        1.9634760000     2.8409710000     0.0697740000 
 H        3.6208260000     3.2785760000     0.0664410000 
 H        5.5376210000     1.3278110000     0.0517690000 
 H        5.2737230000    -1.3882720000     0.0415870000 
*
