! RI PBE def2-SVP def2-SVP/J NBO PAL2
% maxcore 2000
% output
    # printlevel mini
    print[ P_Basis ] 0
    print[ P_SCFInfo ] 1
    print[ P_SCFIterInfo ] 1
    print[ P_OrbEn ] 0
    print[ P_Cartesian ] 0
end
*xyz 0 1
 C        1.0160870000     0.1265700000     0.3532920000 
 C        2.4009800000    -0.1345460000    -0.2001260000 
 O        3.2648380000     0.9450090000     0.1569990000 
 C        4.3741380000     0.4625200000     0.8921420000 
 C        3.9270700000    -0.8687370000     1.4671350000 
 C        3.0623010000    -1.4204500000     0.3376680000 
 N        3.8838390000    -2.1557460000    -0.6120550000 
 H        0.6656010000     1.1125370000     0.0428660000 
 H        1.0218030000     0.0985180000     1.4461360000 
 H        0.3059300000    -0.6213120000    -0.0096890000 
 H        2.3526880000    -0.1837630000    -1.2962310000 
 H        4.6325460000     1.2034170000     1.6522030000 
 H        5.2483920000     0.3422790000     0.2343170000 
 H        3.3244770000    -0.7044840000     2.3634550000 
 H        4.7471530000    -1.5429350000     1.7153930000 
 H        2.3017480000    -2.1089890000     0.7147220000 
 H        4.6149670000    -1.5611570000    -0.9860460000 
 H        3.3268420000    -2.4585220000    -1.4023000000 
*
