! RI PBE def2-SVP def2-SVP/J NBO PAL2
% maxcore 2000
% output
    # printlevel mini
    print[ P_Basis ] 0
    print[ P_SCFInfo ] 1
    print[ P_SCFIterInfo ] 1
    print[ P_OrbEn ] 0
    print[ P_Cartesian ] 0
end
*xyz 0 1
 C        0.8997530000     0.1547640000     0.1351480000 
 C        2.3806840000    -0.0072320000    -0.0627040000 
 O        3.1532610000     1.0227070000     0.5778870000 
 C        4.0867060000     0.0623090000     1.1119300000 
 C        5.4284620000     0.1144060000     0.4257420000 
 C        3.1446710000    -1.0926270000     0.7219120000 
 N        3.7147620000    -2.2533380000     0.0994910000 
 H        0.5466580000     1.0830940000    -0.3202300000 
 H        0.6544430000     0.1805850000     1.1995290000 
 H        0.3607750000    -0.6756900000    -0.3303050000 
 H        2.6187410000    -0.0504890000    -1.1375250000 
 H        4.2120100000     0.2090430000     2.1901370000 
 H        5.3301400000     0.0214810000    -0.6588880000 
 H        6.0732380000    -0.6905220000     0.7862990000 
 H        5.9145910000     1.0697010000     0.6342300000 
 H        2.5605910000    -1.4195100000     1.5859740000 
 H        4.1299860000    -2.0339410000    -0.7968150000 
 H        3.0226470000    -2.9754510000    -0.0474020000 
*
