! RI PBE def2-SVP def2-SVP/J NBO PAL2
% maxcore 2000
% output
    # printlevel mini
    print[ P_Basis ] 0
    print[ P_SCFInfo ] 1
    print[ P_SCFIterInfo ] 1
    print[ P_OrbEn ] 0
    print[ P_Cartesian ] 0
end
*xyz 0 1
 C        0.8294330000    -0.0448380000     0.0556830000 
 C        2.3359660000    -0.0649560000    -0.0279540000 
 O        2.7672700000    -0.1575460000    -1.3807790000 
 C        3.1296330000     1.0169290000     0.7422960000 
 C        4.1516510000    -0.0563270000     1.1692250000 
 N        5.3765660000     0.0150910000     0.4031530000 
 C        3.1069430000    -1.1344150000     0.7653350000 
 H        0.4232350000     0.8379620000    -0.4502750000 
 H        0.4930100000    -0.0155150000     1.0944260000 
 H        0.4107070000    -0.9337880000    -0.4221580000 
 H        2.4373490000     0.6150520000    -1.8500070000 
 H        2.5679900000     1.4181420000     1.5884210000 
 H        3.5265500000     1.8435340000     0.1485030000 
 H        4.4118100000    -0.0479740000     2.2299740000 
 H        5.1574170000    -0.0378150000    -0.5861860000 
 H        5.9718420000    -0.7770330000     0.6163260000 
 H        2.5295730000    -1.5005570000     1.6174690000 
 H        3.4684540000    -1.9804570000     0.1779570000 
*
