! RI PBE def2-SVP def2-SVP/J NBO PAL2
% maxcore 2000
% output
    # printlevel mini
    print[ P_Basis ] 0
    print[ P_SCFInfo ] 1
    print[ P_SCFIterInfo ] 1
    print[ P_OrbEn ] 0
    print[ P_Cartesian ] 0
end
*xyz 0 1
 C        1.0331800000    -0.1000260000    -0.0055280000 
 C        2.3417340000    -0.0220080000    -0.1745270000 
 O        3.1304600000    -1.1165410000    -0.4913760000 
 C        4.3825710000    -0.6216500000    -0.5739460000 
 N        4.5611660000     0.6196480000    -0.3652450000 
 C        3.2700600000     1.1277690000    -0.0883120000 
 N        2.9404570000     2.3166690000     0.1818580000 
 H        0.4998500000    -1.0354330000    -0.1068210000 
 H        0.4933360000     0.8040980000     0.2405240000 
 H        5.1473420000    -1.3485250000    -0.8181900000 
 H        3.7664240000     2.9131990000     0.1782530000 
*
