! RI PBE def2-SVP def2-SVP/J NBO PAL2
% maxcore 2000
% output
    # printlevel mini
    print[ P_Basis ] 0
    print[ P_SCFInfo ] 1
    print[ P_SCFIterInfo ] 1
    print[ P_OrbEn ] 0
    print[ P_Cartesian ] 0
end
*xyz 0 1
 C        0.9437400000     0.1170860000    -0.1138020000 
 C        2.4385670000     0.0609480000    -0.0397820000 
 O        2.9687500000     0.1568120000     1.2520220000 
 C        3.2486240000    -0.7659080000    -1.0273450000 
 N        2.7007970000    -1.5320630000    -2.1024610000 
 C        3.2959710000     0.7267510000    -1.0851370000 
 N        4.5093310000     1.4273940000    -0.7953920000 
 H        0.4874910000    -0.7238050000     0.4214630000 
 H        0.5974600000     0.0748760000    -1.1481950000 
 H        0.5736920000     1.0417210000     0.3356880000 
 H        2.8045730000    -0.6732810000     1.7091630000 
 H        4.1326820000    -1.2104050000    -0.5700130000 
 H        2.3434690000    -0.9533530000    -2.8478410000 
 H        1.9722110000    -2.1657450000    -1.8031230000 
 H        2.7422400000     1.1676850000    -1.9110190000 
 H        4.9852160000     0.9713620000    -0.0259530000 
 H        4.2937060000     2.3640340000    -0.4717940000 
*
