! RI PBE def2-SVP def2-SVP/J NBO PAL2
% maxcore 2000
% output
    # printlevel mini
    print[ P_Basis ] 0
    print[ P_SCFInfo ] 1
    print[ P_SCFIterInfo ] 1
    print[ P_OrbEn ] 0
    print[ P_Cartesian ] 0
end
*xyz 0 1
 C        1.0288230000    -0.1008920000     0.0616040000 
 C        2.4918880000     0.0852330000     0.0610910000 
 C        3.3323360000     1.1512770000     0.0578630000 
 O        3.0841020000     2.4730610000     0.0538170000 
 N        4.6349050000     0.7297990000     0.0592070000 
 C        4.5441270000    -0.5537890000     0.0631150000 
 O        3.2936420000    -1.0299380000     0.0645300000 
 H        0.5252750000     0.8682510000     0.0587620000 
 H        0.6884310000    -0.6453040000     0.9473240000 
 H        0.6884540000    -0.6504870000    -0.8209190000 
 H        2.1344270000     2.6188870000     0.0532520000 
 H        5.3462000000    -1.2752770000     0.0653530000 
*
