! RI PBE def2-SVP def2-SVP/J NBO PAL2
% maxcore 2000
% output
    # printlevel mini
    print[ P_Basis ] 0
    print[ P_SCFInfo ] 1
    print[ P_SCFIterInfo ] 1
    print[ P_OrbEn ] 0
    print[ P_Cartesian ] 0
end
*xyz 0 1
 C        1.1903620000    -0.0498900000     0.0832340000 
 C        2.4972540000     0.0061050000    -0.1013970000 
 O        3.2855850000    -1.0852490000    -0.3951970000 
 C        4.5340730000    -0.5773310000    -0.4978920000 
 N        4.7111900000     0.6702340000    -0.3218470000 
 C        3.4191310000     1.1824960000    -0.0473190000 
 O        3.1325180000     2.3221000000     0.1799820000 
 H        0.6366470000    -0.9769460000     0.0149950000 
 H        0.6697680000     0.8713590000     0.3097640000 
 H        5.2992720000    -1.3083680000    -0.7298230000 
*
