! RI PBE def2-SVP def2-SVP/J NBO PAL2
% maxcore 2000
% output
    # printlevel mini
    print[ P_Basis ] 0
    print[ P_SCFInfo ] 1
    print[ P_SCFIterInfo ] 1
    print[ P_OrbEn ] 0
    print[ P_Cartesian ] 0
end
*xyz 0 1
 C        0.8939210000    -0.0089120000    -0.0123550000 
 C        2.3872720000    -0.1061010000     0.0192820000 
 O        2.9524260000     0.0226720000     1.2972240000 
 C        3.1556690000    -0.9756750000    -0.9636050000 
 N        2.5290720000    -1.7310840000    -1.9981270000 
 C        3.2448980000     0.5271200000    -1.0296170000 
 O        4.3995190000     1.1847500000    -0.6523570000 
 H        0.4326150000    -0.8385670000     0.5340890000 
 H        0.5197820000    -0.0307060000    -1.0371690000 
 H        0.5681460000     0.9244260000     0.4518080000 
 H        3.0034790000    -0.8460270000     1.7056860000 
 H        4.0443960000    -1.4304260000    -0.5257030000 
 H        2.3494110000    -1.1884160000    -2.8298450000 
 H        1.6756860000    -2.1861610000    -1.7073120000 
 H        2.7408120000     1.0081100000    -1.8645100000 
 H        4.4453950000     1.1173970000     0.3103120000 
*
