! RI PBE def2-SVP def2-SVP/J NBO PAL2
% maxcore 2000
% output
    # printlevel mini
    print[ P_Basis ] 0
    print[ P_SCFInfo ] 1
    print[ P_SCFIterInfo ] 1
    print[ P_OrbEn ] 0
    print[ P_Cartesian ] 0
end
*xyz 0 1
 C        1.0223770000     0.0666990000     0.2237510000 
 C        2.5102760000     0.1517840000    -0.0141050000 
 O        2.8402200000     0.1683660000    -1.3706710000 
 C        3.2772060000     1.1834290000     0.8703240000 
 N        3.8775060000     0.0467550000     1.5525770000 
 C        3.3193310000    -0.9195440000     0.7718540000 
 O        3.4134740000    -2.1125540000     0.7416280000 
 H        0.5122020000     0.9296660000    -0.2180110000 
 H        0.7919940000     0.0496370000     1.2905190000 
 H        0.6295750000    -0.8470440000    -0.2268390000 
 H        2.1141540000     0.5583770000    -1.8644020000 
 H        2.6608860000     1.8215090000     1.5095420000 
 H        3.9835780000     1.7841590000     0.2935940000 
 H        4.5385330000    -0.0134680000     2.3102280000 
*
