! RI PBE def2-SVP def2-SVP/J NBO PAL2
% maxcore 2000
% output
    # printlevel mini
    print[ P_Basis ] 0
    print[ P_SCFInfo ] 1
    print[ P_SCFIterInfo ] 1
    print[ P_OrbEn ] 0
    print[ P_Cartesian ] 0
end
*xyz 0 1
 C        0.9168260000     0.1523100000    -0.0173790000 
 C        2.2468720000     0.1206800000    -0.0185640000 
 O        2.9678970000     1.2944160000    -0.0200110000 
 C        4.3071240000     1.1849980000    -0.0211620000 
 N        5.0057860000     0.1288140000    -0.0210860000 
 N        4.3351720000    -1.1007890000    -0.0196360000 
 C        3.0591390000    -1.0785070000    -0.0184880000 
 H        0.3717920000     1.0861680000    -0.0175180000 
 H        0.3658570000    -0.7774950000    -0.0162490000 
 H        4.7861590000     2.1579390000    -0.0222600000 
 H        2.5467660000    -2.0372330000    -0.0173680000 
*
