! RI PBE def2-SVP def2-SVP/J NBO PAL2
% maxcore 2000
% output
    # printlevel mini
    print[ P_Basis ] 0
    print[ P_SCFInfo ] 1
    print[ P_SCFIterInfo ] 1
    print[ P_OrbEn ] 0
    print[ P_Cartesian ] 0
end
*xyz 0 1
 C        0.9526370000     0.1138160000     0.0293600000 
 C        2.4783730000     0.1209710000     0.0826550000 
 O        2.9575500000     0.0878880000     1.4072920000 
 C        3.0431800000     1.2248570000    -0.7769840000 
 N        3.6696650000     0.8010890000    -1.7964590000 
 N        3.6680210000    -0.6458150000    -1.7591910000 
 C        3.0490240000    -1.0186250000    -0.7160050000 
 H        0.5566120000     1.0121770000     0.5121470000 
 H        0.5709560000    -0.7622820000     0.5565800000 
 H        0.5908660000     0.0955570000    -1.0004020000 
 H        2.4798290000     0.7448950000     1.9218910000 
 H        2.9175630000     2.2879700000    -0.5952840000 
 H        2.9257130000    -2.0675960000    -0.4694000000 
*
