! RI PBE def2-SVP def2-SVP/J NBO PAL2
% maxcore 2000
% output
    # printlevel mini
    print[ P_Basis ] 0
    print[ P_SCFInfo ] 1
    print[ P_SCFIterInfo ] 1
    print[ P_OrbEn ] 0
    print[ P_Cartesian ] 0
end
*xyz 0 1
 C        1.0575850000    -0.0509560000    -0.0795600000 
 C        2.5754430000    -0.1323960000    -0.0166180000 
 O        3.1464610000     0.0239690000    -1.3001220000 
 C        3.0716400000    -1.3914260000     0.7130070000 
 N        3.2233500000    -0.9130690000     2.0852260000 
 N        3.4786400000     0.4407180000     2.0574920000 
 C        3.1274560000     0.9065980000     0.9270940000 
 H        0.6580300000    -0.8393860000    -0.7273300000 
 H        0.7409630000     0.9178380000    -0.4714950000 
 H        0.6273890000    -0.1847680000     0.9151540000 
 H        2.5683860000    -0.3948470000    -1.9434410000 
 H        4.0314710000    -1.6851560000     0.2693250000 
 H        2.3717110000    -2.2276730000     0.6595340000 
 H        3.9104250000    -1.3869070000     2.6527050000 
 H        3.1729590000     1.9672800000     0.7145410000 
*
