! RI PBE def2-SVP def2-SVP/J NBO PAL2
% maxcore 2000
% output
    # printlevel mini
    print[ P_Basis ] 0
    print[ P_SCFInfo ] 1
    print[ P_SCFIterInfo ] 1
    print[ P_OrbEn ] 0
    print[ P_Cartesian ] 0
end
*xyz 0 1
 C        0.9659790000     0.0665870000     0.0332670000 
 C        2.4346390000    -0.1533510000    -0.1742360000 
 O        3.2481240000     0.8781800000     0.4665550000 
 C        4.0129970000    -0.0421920000     1.1179800000 
 O        4.9848500000     0.1500290000     1.7656790000 
 C        3.1681150000    -1.2311360000     0.6606200000 
 N        3.8528870000    -2.3537860000     0.1136240000 
 H        0.6392410000     0.9979030000    -0.4333950000 
 H        0.7278810000     0.1140520000     1.0985110000 
 H        0.3981960000    -0.7536630000    -0.4138380000 
 H        2.6984250000    -0.2010600000    -1.2351590000 
 H        2.5357570000    -1.5613220000     1.4911670000 
 H        4.4461660000    -2.1104300000    -0.6677120000 
 H        3.2247530000    -3.0951010000    -0.1614540000 
*
