! RI PBE def2-SVP def2-SVP/J NBO PAL2
% maxcore 2000
% output
    # printlevel mini
    print[ P_Basis ] 0
    print[ P_SCFInfo ] 1
    print[ P_SCFIterInfo ] 1
    print[ P_OrbEn ] 0
    print[ P_Cartesian ] 0
end
*xyz 0 1
 C        1.0313820000     0.0176740000     0.0717620000 
 C        2.3616910000     0.0609040000     0.1288960000 
 O        3.0228270000     1.1945630000     0.4809120000 
 C        4.3637140000     1.1386790000     0.0623530000 
 O        5.0335380000     0.0271090000     0.5736290000 
 N        4.4567430000    -1.1701800000     0.1904820000 
 C        3.2066040000    -1.1076880000    -0.0671960000 
 H        0.4350690000     0.8975610000     0.2726600000 
 H        0.5318160000    -0.9152980000    -0.1478520000 
 H        4.8676230000     2.0191580000     0.4541360000 
 H        4.4008600000     1.1047800000    -1.0356440000 
 H        2.7501240000    -2.0409810000    -0.3781380000 
*
