! RI PBE def2-SVP def2-SVP/J NBO PAL2
% maxcore 2000
% output
    # printlevel mini
    print[ P_Basis ] 0
    print[ P_SCFInfo ] 1
    print[ P_SCFIterInfo ] 1
    print[ P_OrbEn ] 0
    print[ P_Cartesian ] 0
end
*xyz 0 1
 C        1.0990840000     0.0230220000     0.0445600000 
 C        2.6026520000    -0.0196310000    -0.1031140000 
 O        2.9631570000    -1.1496350000    -0.9332320000 
 N        3.3821430000    -0.7012880000    -2.1632810000 
 C        3.4922360000     0.5624160000    -2.1450160000 
 C        3.1987110000     1.1963520000    -0.8206570000 
 C        4.4503330000     1.7737640000    -0.1680810000 
 H        0.7280850000    -0.9144960000     0.4615350000 
 H        0.6245010000     0.1787620000    -0.9273450000 
 H        0.8043630000     0.8387200000     0.7103680000 
 H        3.0816720000    -0.1864060000     0.8660200000 
 H        3.8248280000     1.0745920000    -3.0395120000 
 H        2.4477130000     1.9868480000    -0.9237310000 
 H        5.2106680000     0.9999750000    -0.0399690000 
 H        4.2157780000     2.1900450000     0.8146890000 
 H        4.8806570000     2.5728690000    -0.7762150000 
*
