! RI PBE def2-SVP def2-SVP/J NBO PAL2
% maxcore 2000
% output
    # printlevel mini
    print[ P_Basis ] 0
    print[ P_SCFInfo ] 1
    print[ P_SCFIterInfo ] 1
    print[ P_OrbEn ] 0
    print[ P_Cartesian ] 0
end
*xyz 0 1
 C        0.9793110000     0.1321200000     0.1859580000 
 C        2.4645530000     0.0519950000    -0.0896470000 
 O        2.7283970000    -1.0466210000    -0.9918470000 
 N        3.3627770000    -0.5933510000    -2.1141590000 
 C        3.5485940000     0.6688040000    -2.0305410000 
 C        3.0430740000     1.2423110000    -0.8005230000 
 C        3.0770970000     2.5146320000    -0.4109330000 
 H        0.6221870000    -0.7994450000     0.6276820000 
 H        0.4313070000     0.3168270000    -0.7393400000 
 H        0.7735410000     0.9490650000     0.8815230000 
 H        3.0154570000    -0.1625140000     0.8328260000 
 H        4.0364410000     1.1909550000    -2.8424310000 
 H        3.5230370000     3.2781140000    -1.0367500000 
 H        2.6672070000     2.8324070000     0.5404820000 
*
