! RI PBE def2-SVP def2-SVP/J NBO PAL2
% maxcore 2000
% output
    # printlevel mini
    print[ P_Basis ] 0
    print[ P_SCFInfo ] 1
    print[ P_SCFIterInfo ] 1
    print[ P_OrbEn ] 0
    print[ P_Cartesian ] 0
end
*xyz 0 1
 C        1.0170760000    -0.0433220000    -0.0166810000 
 C        2.4811310000     0.1531000000    -0.0208180000 
 C        3.2823840000     1.2546670000    -0.0182690000 
 N        2.9495750000     2.5860060000    -0.0107320000 
 C        4.5893960000     0.7006090000    -0.0255160000 
 N        4.5689620000    -0.6024330000    -0.0317660000 
 O        3.2558890000    -0.9554520000    -0.0288940000 
 H        0.5033470000     0.9192180000    -0.0105820000 
 H        0.6916760000    -0.6026200000     0.8649900000 
 H        0.6856500000    -0.5946250000    -0.9011360000 
 H        1.9951160000     2.8826230000    -0.0050590000 
 H        3.6601880000     3.2882380000    -0.0090810000 
 H        5.5399110000     1.2161010000    -0.0263460000 
*
