! RI PBE def2-SVP def2-SVP/J NBO PAL2
% maxcore 2000
% output
    # printlevel mini
    print[ P_Basis ] 0
    print[ P_SCFInfo ] 1
    print[ P_SCFIterInfo ] 1
    print[ P_OrbEn ] 0
    print[ P_Cartesian ] 0
end
*xyz 0 1
 C        1.0831370000    -0.0168540000     0.0094360000 
 C        2.5905340000    -0.0592950000    -0.0949940000 
 O        2.9721110000    -1.1746470000    -0.9284400000 
 N        3.3859900000    -0.7063040000    -2.1530850000 
 C        3.4781670000     0.5592950000    -2.1263720000 
 C        3.2002160000     1.1717570000    -0.7864720000 
 N        4.4162270000     1.7493300000    -0.2488150000 
 H        0.6980220000    -0.9583520000     0.4034570000 
 H        0.6370580000     0.1505790000    -0.9740230000 
 H        0.7692390000     0.7919480000     0.6749230000 
 H        3.0494200000    -0.2269310000     0.8837230000 
 H        3.8130450000     1.0922260000    -3.0063690000 
 H        2.4585450000     1.9733380000    -0.8590160000 
 H        5.1288060000     1.0407020000    -0.1229590000 
 H        4.2483930000     2.1894950000     0.6469030000 
*
