! RI PBE def2-SVP def2-SVP/J NBO PAL2
% maxcore 2000
% output
    # printlevel mini
    print[ P_Basis ] 0
    print[ P_SCFInfo ] 1
    print[ P_SCFIterInfo ] 1
    print[ P_OrbEn ] 0
    print[ P_Cartesian ] 0
end
*xyz 0 1
 C        0.9743750000     0.1362430000    -0.1385840000 
 C        2.4450760000    -0.0389080000     0.2001820000 
 O        3.2144980000     1.0934350000    -0.2346700000 
 N        3.5261320000     1.1819850000    -1.5688470000 
 C        3.6562120000     0.0754280000    -2.1983900000 
 C        3.5650550000    -1.2292540000    -1.5754350000 
 C        3.0174440000    -1.2991970000    -0.3649610000 
 H        0.5962110000     1.0667430000     0.2887450000 
 H        0.3959380000    -0.6971140000     0.2688330000 
 H        0.8259760000     0.1566430000    -1.2198760000 
 H        2.5742690000    -0.0141420000     1.2854960000 
 H        3.9297540000     0.1861110000    -3.2423640000 
 H        3.9796020000    -2.0908380000    -2.0845830000 
 H        2.9471570000    -2.2239350000     0.1968540000 
*
