! RI PBE def2-SVP def2-SVP/J NBO PAL2
% maxcore 2000
% output
    # printlevel mini
    print[ P_Basis ] 0
    print[ P_SCFInfo ] 1
    print[ P_SCFIterInfo ] 1
    print[ P_OrbEn ] 0
    print[ P_Cartesian ] 0
end
*xyz 0 1
 C        0.8758850000    -0.0930100000     0.2136450000 
 C        2.2557900000    -0.0084010000    -0.3636520000 
 O        2.5718630000    -1.1592700000    -1.1180450000 
 N        3.3175280000    -0.7221990000    -2.2296660000 
 C        3.1422580000     0.5356730000    -2.2839110000 
 C        3.6581100000     1.4312280000    -3.3350360000 
 O        2.3804860000     1.0626170000    -1.3002430000 
 H        0.8161100000    -0.9508660000     0.8850550000 
 H        0.1436900000    -0.2131320000    -0.5854840000 
 H        0.6506760000     0.8102260000     0.7826660000 
 H        3.0209610000     0.1447620000     0.4164810000 
 H        4.2229440000     0.8507270000    -4.0614040000 
 H        4.2989660000     2.2019590000    -2.9016830000 
 H        2.8266330000     1.9317770000    -3.8371340000 
*
