! RI PBE def2-SVP def2-SVP/J NBO PAL2
% maxcore 2000
% output
    # printlevel mini
    print[ P_Basis ] 0
    print[ P_SCFInfo ] 1
    print[ P_SCFIterInfo ] 1
    print[ P_OrbEn ] 0
    print[ P_Cartesian ] 0
end
*xyz 0 1
 C        1.8544330000    -1.2544570000    -0.3976400000 
 C        2.1472400000    -0.0241450000     0.0164820000 
 C        2.9210190000     0.2881180000     1.1950560000 
 C        3.3015220000     1.4748320000     1.7451450000 
 C        4.0374110000     1.0880770000     2.8855070000 
 N        4.0950350000    -0.2077770000     3.0109750000 
 O        3.3930840000    -0.7161810000     1.9482010000 
 H        1.2677210000    -1.4128380000    -1.2935170000 
 H        2.1909160000    -2.1305330000     0.1438590000 
 H        1.8000240000     0.8395930000    -0.5411250000 
 H        3.0861360000     2.4670930000     1.3862720000 
 H        4.5286480000     1.7078090000     3.6216960000 
*
