! RI PBE def2-SVP def2-SVP/J NBO PAL2
% maxcore 2000
% output
    # printlevel mini
    print[ P_Basis ] 0
    print[ P_SCFInfo ] 1
    print[ P_SCFIterInfo ] 1
    print[ P_OrbEn ] 0
    print[ P_Cartesian ] 0
end
*xyz 0 1
 C        0.9063770000    -0.1279720000     0.0441770000 
 C        2.1048730000    -0.0492550000     0.0470330000 
 C        3.5085880000     0.0567550000     0.0503790000 
 C        4.3495670000     1.1263700000     0.0501290000 
 C        5.6278930000     0.5298950000     0.0547260000 
 N        5.5575380000    -0.7721730000     0.0574680000 
 O        4.2285150000    -1.0809460000     0.0547700000 
 H       -0.1558540000    -0.2015450000     0.0416740000 
 H        4.0840040000     2.1694010000     0.0471130000 
 H        6.5988980000     1.0035510000     0.0561420000 
*
