! RI PBE def2-SVP def2-SVP/J NBO PAL2
% maxcore 2000
% output
    # printlevel mini
    print[ P_Basis ] 0
    print[ P_SCFInfo ] 1
    print[ P_SCFIterInfo ] 1
    print[ P_OrbEn ] 0
    print[ P_Cartesian ] 0
end
*xyz 0 1
 C        1.8590460000     0.6515720000     1.0264370000 
 C        1.9143220000    -0.3741260000     0.1904550000 
 C        3.0661920000    -1.3096790000     0.0996190000 
 C        2.7329230000    -2.7841820000     0.3337840000 
 C        3.4813030000    -3.3962070000    -0.8058270000 
 N        3.9179790000    -2.5568450000    -1.6494470000 
 O        3.6025690000    -1.2794170000    -1.2485750000 
 H        0.9923710000     1.3000740000     1.0733220000 
 H        2.6829430000     0.8795490000     1.6954660000 
 H        1.0865220000    -0.5829210000    -0.4837970000 
 H        3.8680580000    -0.9846440000     0.7729140000 
 H        1.6604520000    -2.9944840000     0.2498780000 
 H        3.0621240000    -3.1397420000     1.3108470000 
 H        3.6323050000    -4.4528500000    -0.9863750000 
*
