! RI PBE def2-SVP def2-SVP/J NBO PAL2
% maxcore 2000
% output
    # printlevel mini
    print[ P_Basis ] 0
    print[ P_SCFInfo ] 1
    print[ P_SCFIterInfo ] 1
    print[ P_OrbEn ] 0
    print[ P_Cartesian ] 0
end
*xyz 0 1
 C        0.9977070000     0.0592730000     0.1579960000 
 C        2.1944770000     0.0853570000     0.0798680000 
 C        3.6477150000     0.0976060000    -0.0038270000 
 C        4.2291250000    -1.1366440000    -0.7062530000 
 C        4.6737290000    -0.5061920000    -1.9857170000 
 N        4.5974540000     0.7579480000    -2.0027350000 
 O        4.0924340000     1.2194710000    -0.8092420000 
 H       -0.0649080000     0.0478240000     0.2223780000 
 H        4.0688080000     0.2448010000     0.9931470000 
 H        3.4868340000    -1.9218510000    -0.8519700000 
 H        5.0767030000    -1.5666030000    -0.1650570000 
 H        5.0647320000    -1.0235000000    -2.8520780000 
*
