! RI PBE def2-SVP def2-SVP/J NBO PAL2
% maxcore 2000
% output
    # printlevel mini
    print[ P_Basis ] 0
    print[ P_SCFInfo ] 1
    print[ P_SCFIterInfo ] 1
    print[ P_OrbEn ] 0
    print[ P_Cartesian ] 0
end
*xyz 0 1
 C        2.4648910000    -1.2831310000     0.4399330000 
 C        2.2595990000     0.0129950000     0.2325740000 
 C        3.0600430000     1.0811980000     0.8067950000 
 N        2.7564110000     2.3258040000     0.5259430000 
 O        3.6617770000     3.1045850000     1.1918250000 
 C        4.5017300000     2.3159370000     1.8673600000 
 C        4.1871520000     1.0192670000     1.6751910000 
 H        1.8294970000    -2.0296140000    -0.0197610000 
 H        3.2686650000    -1.6453980000     1.0714570000 
 H        1.4472130000     0.3479450000    -0.4045150000 
 H        5.2682450000     2.8176360000     2.4371490000 
 H        4.6769780000     0.1525650000     2.0846580000 
*
