! RI PBE def2-SVP def2-SVP/J NBO PAL2
% maxcore 2000
% output
    # printlevel mini
    print[ P_Basis ] 0
    print[ P_SCFInfo ] 1
    print[ P_SCFIterInfo ] 1
    print[ P_OrbEn ] 0
    print[ P_Cartesian ] 0
end
*xyz 0 1
 C        1.0354650000     0.0024330000    -0.0291900000 
 C        2.2355450000    -0.0082890000    -0.0289590000 
 C        3.6515590000    -0.0690250000    -0.0286740000 
 N        4.3784860000     1.0255260000    -0.0286870000 
 O        5.6764180000     0.6069680000    -0.0283730000 
 C        5.7184720000    -0.7272720000    -0.0281790000 
 C        4.4683210000    -1.2339940000    -0.0283520000 
 H       -0.0289060000     0.0262230000    -0.0293910000 
 H        6.7012770000    -1.1718380000    -0.0279240000 
 H        4.1542530000    -2.2632320000    -0.0282700000 
*
