! RI PBE def2-SVP def2-SVP/J NBO PAL2
% maxcore 2000
% output
    # printlevel mini
    print[ P_Basis ] 0
    print[ P_SCFInfo ] 1
    print[ P_SCFIterInfo ] 1
    print[ P_OrbEn ] 0
    print[ P_Cartesian ] 0
end
*xyz 0 1
 C        1.9859800000     1.1560480000    -0.0749970000 
 C        2.6255130000     0.0167370000     0.1475920000 
 C        3.2756990000    -0.7957460000    -0.9149760000 
 C        4.7471070000    -1.2278380000    -0.6669970000 
 C        4.2208540000    -2.6672520000    -0.7068740000 
 O        4.6960430000    -3.7631750000    -0.6168780000 
 N        2.9447980000    -2.2210590000    -0.8981750000 
 H        1.5390260000     1.7249980000     0.7314580000 
 H        1.8911720000     1.5635930000    -1.0770000000 
 H        2.7038020000    -0.3799070000     1.1584950000 
 H        3.1232270000    -0.3343030000    -1.8958050000 
 H        5.1566180000    -0.9320270000     0.2989240000 
 H        5.4497760000    -0.9790490000    -1.4614650000 
 H        2.0728740000    -2.7116210000    -1.0248020000 
*
