! RI PBE def2-SVP def2-SVP/J NBO PAL2
% maxcore 2000
% output
    # printlevel mini
    print[ P_Basis ] 0
    print[ P_SCFInfo ] 1
    print[ P_SCFIterInfo ] 1
    print[ P_OrbEn ] 0
    print[ P_Cartesian ] 0
end
*xyz 0 1
 C        1.4804890000    -0.9410880000     0.2786950000 
 C        2.5348490000     0.1006010000    -0.0547520000 
 C        2.9279740000     0.1000740000    -1.5153310000 
 C        4.1722070000     0.9262180000    -1.9154350000 
 C        4.7720240000    -0.4042880000    -2.3866050000 
 O        5.7865310000    -0.7532860000    -2.9214190000 
 N        3.6620820000    -1.0822320000    -1.9717070000 
 H        1.2066250000    -0.9046970000     1.3349010000 
 H        1.8431660000    -1.9516280000     0.0712260000 
 H        0.5693490000    -0.7854670000    -0.3059880000 
 H        3.4334430000    -0.0661970000     0.5491320000 
 H        2.1645190000     1.1004820000     0.1972480000 
 H        2.0554440000     0.3128740000    -2.1443610000 
 H        4.7057570000     1.3882940000    -1.0842280000 
 H        4.0277320000     1.6519620000    -2.7151490000 
 H        3.3877190000    -2.0425300000    -2.1083370000 
*
