! RI PBE def2-SVP def2-SVP/J NBO PAL2
% maxcore 2000
% output
    # printlevel mini
    print[ P_Basis ] 0
    print[ P_SCFInfo ] 1
    print[ P_SCFIterInfo ] 1
    print[ P_OrbEn ] 0
    print[ P_Cartesian ] 0
end
*xyz 0 1
 C        4.2842630000    -0.1349140000    -1.6518040000 
 C        2.9376060000     0.0186270000    -0.9636690000 
 C        2.7115360000     1.4097220000    -0.4482340000 
 C        1.8871510000     1.6946890000     0.7631310000 
 N        3.3206070000     1.7695550000     0.8142280000 
 C        4.0024820000     2.9423830000     1.0459780000 
 O        3.6825150000     3.7826350000     1.8441510000 
 H        4.4284670000    -1.1541770000    -2.0152780000 
 H        5.0999950000     0.0927620000    -0.9612930000 
 H        4.3712570000     0.5384390000    -2.5089660000 
 H        2.8628070000    -0.6780800000    -0.1234080000 
 H        2.1276450000    -0.2307680000    -1.6576150000 
 H        2.7101560000     2.1938370000    -1.2053630000 
 H        1.4384720000     0.8648860000     1.2994010000 
 H        1.3469280000     2.6343450000     0.8180340000 
 H        4.9322130000     3.0050690000     0.4502970000 
*
