! RI PBE def2-SVP def2-SVP/J NBO PAL2
% maxcore 2000
% output
    # printlevel mini
    print[ P_Basis ] 0
    print[ P_SCFInfo ] 1
    print[ P_SCFIterInfo ] 1
    print[ P_OrbEn ] 0
    print[ P_Cartesian ] 0
end
*xyz 0 1
 C        2.4063170000    -0.7303200000    -1.0503860000 
 C        2.1156220000     0.3085130000    -0.2800560000 
 C        3.1204270000     1.1541300000     0.4077500000 
 C        2.9202610000     2.6921900000     0.3546820000 
 N        2.7880140000     2.6693780000     1.8032200000 
 C        2.9458770000     1.3231890000     1.9421190000 
 O        2.9475620000     0.5919760000     2.8894170000 
 H        1.6287620000    -1.3255000000    -1.5141340000 
 H        3.4334190000    -1.0267420000    -1.2380440000 
 H        1.0731690000     0.5710940000    -0.1076630000 
 H        4.1376010000     0.8439570000     0.1597640000 
 H        2.0180150000     3.0120010000    -0.1725610000 
 H        3.7827260000     3.2534960000    -0.0125210000 
 H        2.6532190000     3.3977390000     2.4865140000 
*
