! RI PBE def2-SVP def2-SVP/J NBO PAL2
% maxcore 2000
% output
    # printlevel mini
    print[ P_Basis ] 0
    print[ P_SCFInfo ] 1
    print[ P_SCFIterInfo ] 1
    print[ P_OrbEn ] 0
    print[ P_Cartesian ] 0
end
*xyz 0 1
 C        3.4776880000    -0.5424060000     0.9600220000 
 C        2.4112970000    -0.1607750000    -0.0555820000 
 C        2.9717560000     0.5849430000    -1.2339230000 
 C        2.1413420000     1.5608710000    -2.0549020000 
 N        0.7758800000     1.8979030000    -1.7836250000 
 C        3.2310050000     2.0513460000    -1.1612360000 
 O        4.4280690000     2.5227640000    -1.6910650000 
 H        3.0465190000    -1.0774340000     1.8096000000 
 H        3.9879250000     0.3452890000     1.3421420000 
 H        4.2365330000    -1.1875280000     0.5096690000 
 H        1.6411700000     0.4466210000     0.4316500000 
 H        1.8992340000    -1.0636560000    -0.4086060000 
 H        3.7115900000     0.0428470000    -1.8167360000 
 H        2.3901650000     1.5746460000    -3.1121860000 
 H        0.6603540000     2.2884250000    -0.8589050000 
 H        0.1681050000     1.0914720000    -1.8553650000 
 H        2.9080200000     2.5495600000    -0.2442730000 
 H        4.2564390000     3.3670000000    -2.1177800000 
*
