! RI PBE def2-SVP def2-SVP/J NBO PAL2
% maxcore 2000
% output
    # printlevel mini
    print[ P_Basis ] 0
    print[ P_SCFInfo ] 1
    print[ P_SCFIterInfo ] 1
    print[ P_OrbEn ] 0
    print[ P_Cartesian ] 0
end
*xyz 0 1
 C        0.9710880000     0.2505330000     0.0058240000 
 C        2.4369020000    -0.0862970000     0.2282570000 
 C        2.9523990000    -1.1145640000    -0.7591270000 
 C        4.3722980000    -1.6880330000    -0.5333320000 
 N        3.7533690000    -2.9979290000    -0.3926350000 
 C        2.4703520000    -2.5634800000    -0.5503730000 
 O        1.4103400000    -3.1255580000    -0.5139100000 
 H        0.6173100000     0.9693220000     0.7479510000 
 H        0.3517910000    -0.6457820000     0.0723060000 
 H        0.8156500000     0.6894570000    -0.9836120000 
 H        2.5816120000    -0.4667680000     1.2459980000 
 H        3.0472800000     0.8200790000     0.1478090000 
 H        2.7873320000    -0.7856350000    -1.7889690000 
 H        4.8609110000    -1.3262300000     0.3757690000 
 H        5.0567060000    -1.6024140000    -1.3808010000 
 H        4.1280600000    -3.9089010000    -0.1797520000 
*
