! RI PBE def2-SVP def2-SVP/J NBO PAL2
% maxcore 2000
% output
    # printlevel mini
    print[ P_Basis ] 0
    print[ P_SCFInfo ] 1
    print[ P_SCFIterInfo ] 1
    print[ P_OrbEn ] 0
    print[ P_Cartesian ] 0
end
*xyz 0 1
 C        1.0123240000    -0.1192600000     0.0746730000 
 C        2.5078990000     0.0776920000    -0.1551460000 
 C        2.9908830000    -0.4896170000    -1.4333480000 
 C        3.5400050000     0.0175130000    -2.5598680000 
 N        3.7938780000    -1.0047870000    -3.4555090000 
 C        3.3945600000    -2.0602020000    -2.8433170000 
 O        2.8939820000    -1.8398800000    -1.6134490000 
 H        0.7114980000     0.3088850000     1.0329550000 
 H        0.7547680000    -1.1798310000     0.0830240000 
 H        0.4295550000     0.3628450000    -0.7129230000 
 H        3.0690000000    -0.3711360000     0.6721500000 
 H        2.7539920000     1.1423660000    -0.1565490000 
 H        3.7716770000     1.0459820000    -2.7874400000 
 H        3.4114690000    -3.0824610000    -3.1883540000 
*
