! RI PBE def2-SVP def2-SVP/J NBO PAL2
% maxcore 2000
% output
    # printlevel mini
    print[ P_Basis ] 0
    print[ P_SCFInfo ] 1
    print[ P_SCFIterInfo ] 1
    print[ P_OrbEn ] 0
    print[ P_Cartesian ] 0
end
*xyz 0 1
 C        0.8775210000    -0.0275980000     0.0724680000 
 C        2.3764920000     0.1227430000    -0.1705970000 
 C        2.8281460000    -0.5186810000    -1.4273940000 
 C        3.3916750000    -0.0561700000    -2.5705790000 
 N        3.5789140000    -1.1356130000    -3.3882800000 
 N        3.1797320000    -2.1792370000    -2.8347650000 
 O        2.6833740000    -1.8330710000    -1.5614090000 
 H        0.5967730000     0.4531330000     1.0110180000 
 H        0.5946800000    -1.0795860000     0.1305540000 
 H        0.3019680000     0.4338480000    -0.7323250000 
 H        2.9327570000    -0.3177090000     0.6632050000 
 H        2.6535000000     1.1782370000    -0.2140430000 
 H        3.6709780000     0.9420140000    -2.8605620000 
*
