! RI PBE def2-SVP def2-SVP/J NBO PAL2
% maxcore 2000
% output
    # printlevel mini
    print[ P_Basis ] 0
    print[ P_SCFInfo ] 1
    print[ P_SCFIterInfo ] 1
    print[ P_OrbEn ] 0
    print[ P_Cartesian ] 0
end
*xyz 0 1
 C        1.0536430000     0.1624530000     0.5379010000 
 C        2.3462470000     0.0943910000     0.2303860000 
 C        3.0972970000    -1.1331880000     0.1242870000 
 C        4.4011140000    -1.3830880000    -0.1748590000 
 N        4.5663980000    -2.7367670000    -0.1323010000 
 N        3.4910820000    -3.2993830000     0.1618250000 
 O        2.5100310000    -2.3082060000     0.3377120000 
 H        0.5488570000     1.1180020000     0.6012540000 
 H        0.4691260000    -0.7287120000     0.7332800000 
 H        2.9158580000     0.9973940000     0.0378880000 
 H        5.2073470000    -0.7099860000    -0.4104740000 
*
