! RI PBE def2-SVP def2-SVP/J NBO PAL2
% maxcore 2000
% output
    # printlevel mini
    print[ P_Basis ] 0
    print[ P_SCFInfo ] 1
    print[ P_SCFIterInfo ] 1
    print[ P_OrbEn ] 0
    print[ P_Cartesian ] 0
end
*xyz 0 1
 C        0.9883900000     0.0465840000     0.0224910000 
 C        2.1881450000     0.0910860000     0.0241780000 
 C        3.5909570000     0.1655980000     0.0261170000 
 C        4.4624370000     1.2086470000     0.0244340000 
 N        5.7146510000     0.6695990000     0.0279070000 
 N        5.6529760000    -0.5796370000     0.0314540000 
 O        4.3116370000    -0.9598030000     0.0304980000 
 H       -0.0758440000     0.0023710000     0.0210320000 
 H        4.2819620000     2.2691650000     0.0210790000 
*
