! RI PBE def2-SVP def2-SVP/J NBO PAL2
% maxcore 2000
% output
    # printlevel mini
    print[ P_Basis ] 0
    print[ P_SCFInfo ] 1
    print[ P_SCFIterInfo ] 1
    print[ P_OrbEn ] 0
    print[ P_Cartesian ] 0
end
*xyz 0 1
 C        0.9804230000    -0.0846360000    -0.1326590000 
 C        2.4727670000    -0.1062310000     0.1811740000 
 C        2.8877180000     0.9578090000     1.1397870000 
 C        3.3434200000     0.8416600000     2.4100200000 
 O        3.5937100000     2.0413020000     2.9406890000 
 N        3.3031770000     3.0075690000     2.0131610000 
 C        2.8879760000     2.3678760000     0.9582200000 
 H        0.7213870000    -0.8702470000    -0.8457890000 
 H        0.6807770000     0.8723270000    -0.5662740000 
 H        0.3888310000    -0.2367450000     0.7726350000 
 H        3.0409840000     0.0035200000    -0.7484690000 
 H        2.7489150000    -1.0812650000     0.5916560000 
 H        3.5375540000    -0.0081310000     3.0466100000 
 H        2.6004790000     2.9366020000     0.0845390000 
*
