! RI PBE def2-SVP def2-SVP/J NBO PAL2
% maxcore 2000
% output
    # printlevel mini
    print[ P_Basis ] 0
    print[ P_SCFInfo ] 1
    print[ P_SCFIterInfo ] 1
    print[ P_OrbEn ] 0
    print[ P_Cartesian ] 0
end
*xyz 0 1
 C        1.1790470000     0.0896870000     0.8500170000 
 C        2.2864820000     0.0310920000     0.1151640000 
 C        2.9532480000    -1.1822090000    -0.3131760000 
 C        4.0826250000    -1.2940260000    -1.0617650000 
 O        4.3995210000    -2.5727560000    -1.2569950000 
 N        3.4683130000    -3.3648410000    -0.6292660000 
 C        2.6223150000    -2.5481800000    -0.0772420000 
 H        0.7444180000     1.0415220000     1.1272930000 
 H        0.6694470000    -0.8015450000     1.1991700000 
 H        2.7528190000     0.9587780000    -0.2056840000 
 H        4.7422050000    -0.5658370000    -1.5083740000 
 H        1.7914800000    -2.9572060000     0.4792660000 
*
