! RI PBE def2-SVP def2-SVP/J NBO PAL2
% maxcore 2000
% output
    # printlevel mini
    print[ P_Basis ] 0
    print[ P_SCFInfo ] 1
    print[ P_SCFIterInfo ] 1
    print[ P_OrbEn ] 0
    print[ P_Cartesian ] 0
end
*xyz 0 1
 C        1.0070660000    -0.0364620000     0.0139830000 
 C        2.2085610000    -0.0191320000     0.0153320000 
 C        3.6188520000    -0.0206500000     0.0169070000 
 C        4.4770960000     1.0356610000     0.0180490000 
 O        5.7345420000     0.6098620000     0.0193790000 
 N        5.7519800000    -0.7649730000     0.0191600000 
 C        4.5076970000    -1.1351660000     0.0177060000 
 H       -0.0573010000    -0.0480940000     0.0127850000 
 H        4.3240060000     2.1032040000     0.0180630000 
 H        4.2591120000    -2.1861600000     0.0172460000 
*
