! RI PBE def2-SVP def2-SVP/J NBO PAL2
% maxcore 2000
% output
    # printlevel mini
    print[ P_Basis ] 0
    print[ P_SCFInfo ] 1
    print[ P_SCFIterInfo ] 1
    print[ P_OrbEn ] 0
    print[ P_Cartesian ] 0
end
*xyz 0 1
 C        0.9904880000     0.1105870000    -0.1222430000 
 C        2.4967560000    -0.1229590000    -0.0743600000 
 C        2.9895500000    -0.4247360000     1.2965030000 
 N        3.4709860000    -1.5858210000     1.6306180000 
 O        3.8003440000    -1.5019870000     2.9382970000 
 N        3.5271250000    -0.2810880000     3.4389990000 
 C        3.0280030000     0.3978300000     2.4544430000 
 H        0.6711180000     0.3352000000    -1.1414980000 
 H        0.6943030000     0.9489850000     0.5125310000 
 H        0.4485070000    -0.7742610000     0.2169740000 
 H        3.0208280000     0.7610280000    -0.4510700000 
 H        2.7732530000    -0.9572000000    -0.7218620000 
 H        2.7220090000     1.4238220000     2.5885680000 
*
