! RI PBE def2-SVP def2-SVP/J NBO PAL2
% maxcore 2000
% output
    # printlevel mini
    print[ P_Basis ] 0
    print[ P_SCFInfo ] 1
    print[ P_SCFIterInfo ] 1
    print[ P_OrbEn ] 0
    print[ P_Cartesian ] 0
end
*xyz 0 1
 C        1.9729540000    -1.3981890000    -0.2333880000 
 C        2.2208150000    -0.1489540000     0.1451240000 
 C        3.0437130000     0.2167090000     1.2822970000 
 N        3.2486320000     1.4659920000     1.6022430000 
 O        4.0431040000     1.4546890000     2.6885580000 
 N        4.3494100000     0.1948770000     3.0675320000 
 C        3.7506520000    -0.5822010000     2.2238760000 
 H        1.3490700000    -1.6058000000    -1.0933360000 
 H        2.3786600000    -2.2541680000     0.2945280000 
 H        1.8009570000     0.6881230000    -0.4027320000 
 H        3.8351420000    -1.6541770000     2.3053970000 
*
