! RI PBE def2-SVP def2-SVP/J NBO PAL2
% maxcore 2000
% output
    # printlevel mini
    print[ P_Basis ] 0
    print[ P_SCFInfo ] 1
    print[ P_SCFIterInfo ] 1
    print[ P_OrbEn ] 0
    print[ P_Cartesian ] 0
end
*xyz 0 1
 C        0.9220210000    -0.0253980000     0.0677490000 
 C        2.1215620000    -0.0026570000     0.0682770000 
 C        3.5341200000    -0.0287180000     0.0687880000 
 N        4.2753130000     1.0494520000     0.0713160000 
 O        5.5462790000     0.6188020000     0.0709340000 
 N        5.6260820000    -0.7290930000     0.0681770000 
 C        4.4037520000    -1.1536340000     0.0668090000 
 H       -0.1429580000    -0.0307950000     0.0673120000 
 H        4.1668380000    -2.2053700000     0.0645380000 
*
