! RI PBE def2-SVP def2-SVP/J NBO PAL2
% maxcore 2000
% output
    # printlevel mini
    print[ P_Basis ] 0
    print[ P_SCFInfo ] 1
    print[ P_SCFIterInfo ] 1
    print[ P_OrbEn ] 0
    print[ P_Cartesian ] 0
end
*xyz 0 1
 C        1.5930310000    -0.3352160000     0.9756580000 
 C        2.4370790000     0.0674520000     0.0304070000 
 C        3.0726580000    -0.8180140000    -0.9232830000 
 C        3.9415910000    -0.5067850000    -1.9174570000 
 O        4.2815320000    -1.6511800000    -2.5640480000 
 C        3.5915720000    -2.6095610000    -1.9193240000 
 N        2.8647410000    -2.1911510000    -0.9498210000 
 H        1.1456420000     0.3708760000     1.6638190000 
 H        1.3329000000    -1.3820900000     1.0791870000 
 H        2.6894480000     1.1199660000    -0.0625360000 
 H        4.3864540000     0.4067660000    -2.2729500000 
 H        3.7147320000    -3.6209750000    -2.2750520000 
*
