! RI PBE def2-SVP def2-SVP/J NBO PAL2
% maxcore 2000
% output
    # printlevel mini
    print[ P_Basis ] 0
    print[ P_SCFInfo ] 1
    print[ P_SCFIterInfo ] 1
    print[ P_OrbEn ] 0
    print[ P_Cartesian ] 0
end
*xyz 0 1
 C        0.9180620000     0.0638580000     0.0402910000 
 C        2.1191730000     0.0695320000     0.0426190000 
 C        3.5324430000     0.0888950000     0.0453260000 
 C        4.3568260000     1.1668640000     0.0430540000 
 O        5.6324480000     0.7192890000     0.0471740000 
 C        5.5183220000    -0.6228890000     0.0518010000 
 N        4.3134090000    -1.0613920000     0.0510210000 
 H       -0.1461910000     0.0518580000     0.0382600000 
 H        4.2006300000     2.2314380000     0.0389010000 
 H        6.4356770000    -1.1907550000     0.0556540000 
*
