! RI PBE def2-SVP def2-SVP/J NBO PAL2
% maxcore 2000
% output
    # printlevel mini
    print[ P_Basis ] 0
    print[ P_SCFInfo ] 1
    print[ P_SCFIterInfo ] 1
    print[ P_OrbEn ] 0
    print[ P_Cartesian ] 0
end
*xyz 0 1
 C        2.7104950000     1.1050610000     0.6071810000 
 C        2.3222990000    -0.0852050000    -0.2589270000 
 C        3.4769050000    -0.9913680000    -0.6008770000 
 C        4.5972950000    -0.3665060000    -1.4108140000 
 O        5.4954330000    -1.3264930000    -1.8917690000 
 C        3.7844370000    -2.1272520000     0.2883780000 
 N        3.1925880000    -2.3585520000    -1.0326230000 
 H        1.8315300000     1.6984010000     0.8673810000 
 H        3.4108220000     1.7667100000     0.0932130000 
 H        3.1819420000     0.7771140000     1.5370340000 
 H        1.8640550000     0.2708780000    -1.1895530000 
 H        1.5582880000    -0.6778040000     0.2571550000 
 H        5.1624370000     0.3392380000    -0.7954770000 
 H        4.1450320000     0.2046250000    -2.2388020000 
 H        4.9473440000    -2.0959800000    -2.1099150000 
 H        3.1551230000    -2.2670590000     1.1620550000 
 H        4.8073460000    -2.4717750000     0.3899150000 
 H        2.2034400000    -2.5683220000    -0.9625540000 
*
