! RI PBE def2-SVP def2-SVP/J NBO PAL2
% maxcore 2000
% output
    # printlevel mini
    print[ P_Basis ] 0
    print[ P_SCFInfo ] 1
    print[ P_SCFIterInfo ] 1
    print[ P_OrbEn ] 0
    print[ P_Cartesian ] 0
end
*xyz 0 1
 C        0.9621990000     0.0323490000     0.1438010000 
 C        2.4543460000    -0.0881710000     0.1484430000 
 C        3.1226390000    -1.2430070000     0.1363640000 
 C        4.6030730000    -1.4806610000     0.1395040000 
 O        4.7383910000    -2.9117640000     0.1215740000 
 N        3.4991740000    -3.4947670000     0.1088860000 
 C        2.5933330000    -2.5921800000     0.1167550000 
 H        0.6529910000     1.0774450000     0.1549240000 
 H        0.5131480000    -0.4507920000     1.0168880000 
 H        0.5202860000    -0.4299730000    -0.7440660000 
 H        3.0266680000     0.8352160000     0.1627330000 
 H        5.1002110000    -1.1018420000     1.0372940000 
 H        5.1076950000    -1.0788140000    -0.7439820000 
 H        1.5544380000    -2.8911480000     0.1085720000 
*
