! RI PBE def2-SVP def2-SVP/J NBO PAL2
% maxcore 2000
% output
    # printlevel mini
    print[ P_Basis ] 0
    print[ P_SCFInfo ] 1
    print[ P_SCFIterInfo ] 1
    print[ P_OrbEn ] 0
    print[ P_Cartesian ] 0
end
*xyz 0 1
 C        1.0284850000    -0.0219000000    -0.3588350000 
 C        2.1908340000     0.2429440000     0.2293260000 
 C        2.9274830000    -0.6981250000     1.0456410000 
 C        4.1097030000    -0.5702710000     1.7007260000 
 O        4.3850460000    -1.7072210000     2.3201670000 
 N        3.3207570000    -2.5825700000     2.0338030000 
 N        2.5066390000    -1.9839480000     1.3090310000 
 H        0.5262530000     0.7266110000    -0.9581560000 
 H        0.5528690000    -0.9900520000    -0.2555970000 
 H        2.6495210000     1.2201370000     0.1123720000 
 H        4.8173210000     0.2362850000     1.8009110000 
*
