! RI PBE def2-SVP def2-SVP/J NBO PAL2
% maxcore 2000
% output
    # printlevel mini
    print[ P_Basis ] 0
    print[ P_SCFInfo ] 1
    print[ P_SCFIterInfo ] 1
    print[ P_OrbEn ] 0
    print[ P_Cartesian ] 0
end
*xyz 0 1
 C        0.9671700000    -0.0333050000    -0.1011930000 
 C        2.1671900000     0.0001030000    -0.0994800000 
 C        3.5756630000     0.0492070000    -0.0975520000 
 C        4.4225690000     1.1117200000    -0.0992980000 
 O        5.6630070000     0.6664330000    -0.0962030000 
 N        5.5838860000    -0.7448120000    -0.0923890000 
 N        4.3852570000    -1.0699260000    -0.0932510000 
 H       -0.0968650000    -0.0703070000    -0.1027190000 
 H        4.2627220000     2.1771780000    -0.1025160000 
*
