! RI PBE def2-SVP def2-SVP/J NBO PAL2
% maxcore 2000
% output
    # printlevel mini
    print[ P_Basis ] 0
    print[ P_SCFInfo ] 1
    print[ P_SCFIterInfo ] 1
    print[ P_OrbEn ] 0
    print[ P_Cartesian ] 0
end
*xyz 0 1
 C        0.6081610000     0.0719740000    -0.6946960000 
 C        1.7763690000     0.4423220000    -0.1887970000 
 C        2.9386290000     0.9126180000    -0.9681990000 
 N        2.8550070000     1.2872650000    -2.3550970000 
 C        3.0137360000     2.3569270000    -1.3678910000 
 C        4.3309090000     3.0294820000    -1.3682540000 
 O        4.5241590000     4.1315940000    -0.9325110000 
 H       -0.2019760000    -0.2528980000    -0.0537020000 
 H        0.4120210000     0.0642910000    -1.7622390000 
 H        1.9332590000     0.3984500000     0.8862780000 
 H        3.8819430000     0.4369350000    -0.7051900000 
 H        1.8947520000     1.2709690000    -2.6825110000 
 H        2.1621960000     2.9784690000    -1.1102010000 
 H        5.1503350000     2.4167020000    -1.8029800000 
*
