! RI PBE def2-SVP def2-SVP/J NBO PAL2
% maxcore 2000
% output
    # printlevel mini
    print[ P_Basis ] 0
    print[ P_SCFInfo ] 1
    print[ P_SCFIterInfo ] 1
    print[ P_OrbEn ] 0
    print[ P_Cartesian ] 0
end
*xyz 0 1
 C        3.3875990000    -0.8683050000     0.6696390000 
 C        2.3233690000    -0.0615120000    -0.0573650000 
 C        2.9076600000     0.9741940000    -0.9763250000 
 N        2.1346320000     2.1013230000    -1.4402410000 
 C        3.1955350000     2.3407280000    -0.4530370000 
 C        4.3694880000     3.0820380000    -0.9587500000 
 O        5.1345740000     3.6915560000    -0.2612530000 
 H        2.9352060000    -1.6228380000     1.3160080000 
 H        4.0152580000    -0.2243990000     1.2900490000 
 H        4.0400130000    -1.3866620000    -0.0375750000 
 H        1.6668340000     0.4359240000     0.6658940000 
 H        1.6869280000    -0.7318280000    -0.6463200000 
 H        3.5856180000     0.5830750000    -1.7334830000 
 H        1.2308710000     2.1324420000    -0.9786870000 
 H        2.9315620000     2.5378490000     0.5819080000 
 H        4.5013750000     3.0208180000    -2.0608700000 
*
