! RI PBE def2-SVP def2-SVP/J NBO PAL2
% maxcore 2000
% output
    # printlevel mini
    print[ P_Basis ] 0
    print[ P_SCFInfo ] 1
    print[ P_SCFIterInfo ] 1
    print[ P_OrbEn ] 0
    print[ P_Cartesian ] 0
end
*xyz 0 1
 C        1.3004690000    -0.4634510000     0.3525310000 
 C        2.6645810000     0.1413540000     0.0618130000 
 C        3.1376110000    -0.1466530000    -1.3412720000 
 N        4.4755720000     0.3732680000    -1.7276350000 
 C        4.7744490000    -0.9065300000    -2.4155360000 
 C        3.5815300000    -1.5738580000    -1.7178060000 
 O        2.7310370000    -2.4318660000    -2.4186230000 
 H        0.9946240000    -0.2723260000     1.3831140000 
 H        1.3062970000    -1.5452190000     0.1979600000 
 H        0.5355640000    -0.0420690000    -0.3050300000 
 H        3.4054050000    -0.2510070000     0.7703010000 
 H        2.6357450000     1.2265960000     0.2114780000 
 H        2.3934970000     0.2219220000    -2.0636930000 
 H        5.0534620000     0.4638650000    -0.8990850000 
 H        5.7695080000    -1.3234310000    -2.2461880000 
 H        4.6204700000    -0.8066270000    -3.4968110000 
 H        3.8990030000    -2.1240770000    -0.8267140000 
 H        2.4366040000    -1.9810820000    -3.2155120000 
*
