! RI PBE def2-SVP def2-SVP/J NBO PAL2
% maxcore 2000
% output
    # printlevel mini
    print[ P_Basis ] 0
    print[ P_SCFInfo ] 1
    print[ P_SCFIterInfo ] 1
    print[ P_OrbEn ] 0
    print[ P_Cartesian ] 0
end
*xyz 0 1
 C        1.5441560000     0.6080950000     0.5113540000 
 C        2.7574620000     0.2552660000     0.1091950000 
 C        3.1391870000     0.0477580000    -1.3133410000 
 N        4.3802200000     0.7216160000    -1.7694600000 
 C        5.1484940000    -0.5353290000    -1.8525760000 
 C        3.8524700000    -1.2903490000    -1.5978590000 
 O        3.5160320000    -2.4294930000    -1.6189980000 
 H        1.3102250000     0.7366610000     1.5615690000 
 H        0.7406880000     0.7746880000    -0.1987960000 
 H        3.5447030000     0.0961910000     0.8449670000 
 H        2.2822940000     0.2318630000    -1.9706790000 
 H        4.7419990000     1.3946920000    -1.1071150000 
 H        5.8815600000    -0.7061340000    -1.0538230000 
 H        5.6307890000    -0.7195260000    -2.8168260000 
*
