! RI PBE def2-SVP def2-SVP/J NBO PAL2
% maxcore 2000
% output
    # printlevel mini
    print[ P_Basis ] 0
    print[ P_SCFInfo ] 1
    print[ P_SCFIterInfo ] 1
    print[ P_OrbEn ] 0
    print[ P_Cartesian ] 0
end
*xyz 0 1
 C        0.7610490000     0.0862170000    -0.0167040000 
 C        2.2796390000     0.1269770000    -0.0408390000 
 C        2.9400980000     0.0618400000    -1.4008290000 
 N        4.3740710000     0.2131370000    -1.4110180000 
 C        2.4195410000    -0.8484550000    -2.4841090000 
 C        2.3116390000     0.6410500000    -2.6409990000 
 O        3.1249770000     1.3055380000    -3.5398530000 
 H        0.3977280000     0.1364830000     1.0117710000 
 H        0.3710650000    -0.8357040000    -0.4539290000 
 H        0.3234540000     0.9277790000    -0.5580430000 
 H        2.6730100000    -0.6995370000     0.5652420000 
 H        2.6175740000     1.0491710000     0.4499650000 
 H        4.8431600000    -0.6406930000    -1.1360610000 
 H        4.6628750000     0.9458080000    -0.7730750000 
 H        1.5205840000    -1.4211580000    -2.2917080000 
 H        3.1573910000    -1.3456520000    -3.1033070000 
 H        1.3274540000     1.0889450000    -2.5727000000 
 H        4.0277810000     1.1203740000    -3.2313830000 
*
