! RI PBE def2-SVP def2-SVP/J NBO PAL2
% maxcore 2000
% output
    # printlevel mini
    print[ P_Basis ] 0
    print[ P_SCFInfo ] 1
    print[ P_SCFIterInfo ] 1
    print[ P_OrbEn ] 0
    print[ P_Cartesian ] 0
end
*xyz 0 1
 C        0.9637190000     0.1408350000     0.0857430000 
 C        2.4731580000     0.0416470000    -0.1133720000 
 C        2.9942420000    -1.3361250000     0.0465640000 
 N        3.5343480000    -2.1004060000    -0.8420070000 
 C        3.8249530000    -3.2720800000    -0.1703430000 
 C        3.4360550000    -3.1497630000     1.1131280000 
 O        2.8998630000    -1.9101100000     1.2673170000 
 H        0.6304660000     1.1728200000    -0.0390080000 
 H        0.6763890000    -0.1888140000     1.0857640000 
 H        0.4334330000    -0.4777520000    -0.6410760000 
 H        2.9838450000     0.6981300000     0.5987970000 
 H        2.7537460000     0.3673800000    -1.1156920000 
 H        4.2910580000    -4.1123090000    -0.6594400000 
 H        3.4610150000    -3.7843730000     1.9820340000 
*
