! RI PBE def2-SVP def2-SVP/J NBO PAL2
% maxcore 2000
% output
    # printlevel mini
    print[ P_Basis ] 0
    print[ P_SCFInfo ] 1
    print[ P_SCFIterInfo ] 1
    print[ P_OrbEn ] 0
    print[ P_Cartesian ] 0
end
*xyz 0 1
 C        1.0324680000     0.0119550000    -0.1112660000 
 C        2.3065780000     0.0447240000     0.2698900000 
 C        3.0702630000    -1.0998170000     0.7048810000 
 N        4.3108440000    -1.1101440000     1.0836020000 
 C        4.5716190000    -2.4234030000     1.3955200000 
 C        3.4561720000    -3.1546100000     1.1866950000 
 O        2.4857530000    -2.3182480000     0.7434900000 
 H        0.5243410000     0.9145610000    -0.4256920000 
 H        0.4648920000    -0.9111160000    -0.1199030000 
 H        2.8702410000     0.9706670000     0.2768440000 
 H        5.5373900000    -2.7498650000     1.7466570000 
 H        3.1957380000    -4.1937050000     1.2919830000 
*
