! RI PBE def2-SVP def2-SVP/J NBO PAL2
% maxcore 2000
% output
    # printlevel mini
    print[ P_Basis ] 0
    print[ P_SCFInfo ] 1
    print[ P_SCFIterInfo ] 1
    print[ P_OrbEn ] 0
    print[ P_Cartesian ] 0
end
*xyz 0 1
 C        1.0987080000    -0.0491570000    -0.0456740000 
 C        2.2975570000     0.0111620000    -0.0485860000 
 C        3.7065920000     0.0796220000    -0.0520040000 
 N        4.4587610000     1.1346270000    -0.0556510000 
 C        5.7406240000     0.6424790000    -0.0577720000 
 C        5.6961460000    -0.7082570000    -0.0552560000 
 O        4.3972200000    -1.0846950000    -0.0515450000 
 H        0.0350460000    -0.0963300000    -0.0431020000 
 H        6.6017310000     1.2912210000    -0.0609470000 
 H        6.4314240000    -1.4944710000    -0.0555740000 
*
