! RI PBE def2-SVP def2-SVP/J NBO PAL2
% maxcore 2000
% output
    # printlevel mini
    print[ P_Basis ] 0
    print[ P_SCFInfo ] 1
    print[ P_SCFIterInfo ] 1
    print[ P_OrbEn ] 0
    print[ P_Cartesian ] 0
end
*xyz 0 1
 C        2.8473890000    -1.0210520000     0.4055930000 
 C        2.2632820000     0.0725930000    -0.0735640000 
 C        2.9148830000     1.0251650000    -0.9456270000 
 N        2.3999030000     2.1090610000    -1.4456110000 
 C        3.4402630000     2.6023370000    -2.1725010000 
 N        4.5246810000     1.8900410000    -2.1365030000 
 O        4.1824680000     0.8335230000    -1.3183330000 
 H        2.3071800000    -1.6977950000     1.0554190000 
 H        3.8741290000    -1.2701930000     0.1645440000 
 H        1.2368070000     0.3232970000     0.1663640000 
 H        3.3916150000     3.5166220000    -2.7453910000 
*
