! RI PBE def2-SVP def2-SVP/J NBO PAL2
% maxcore 2000
% output
    # printlevel mini
    print[ P_Basis ] 0
    print[ P_SCFInfo ] 1
    print[ P_SCFIterInfo ] 1
    print[ P_OrbEn ] 0
    print[ P_Cartesian ] 0
end
*xyz 0 1
 C        0.9239730000    -0.0542360000     0.0557830000 
 C        2.1214250000     0.0103700000     0.0530320000 
 C        3.5307230000     0.0788540000     0.0498130000 
 N        4.2889670000     1.1317570000     0.0457330000 
 C        5.5304800000     0.5722510000     0.0443310000 
 N        5.5491420000    -0.7266150000     0.0473040000 
 O        4.2196750000    -1.0691830000     0.0509820000 
 H       -0.1400340000    -0.1064930000     0.0582140000 
 H        6.4446490000     1.1471040000     0.0410170000 
*
