! RI PBE def2-SVP def2-SVP/J NBO PAL2
% maxcore 2000
% output
    # printlevel mini
    print[ P_Basis ] 0
    print[ P_SCFInfo ] 1
    print[ P_SCFIterInfo ] 1
    print[ P_OrbEn ] 0
    print[ P_Cartesian ] 0
end
*xyz 0 1
 C        0.8190270000     0.3956380000    -0.2053720000 
 C        2.2955260000     0.0682710000    -0.0472150000 
 C        2.9578060000     0.4769270000     1.2681450000 
 N        4.3649910000     0.1263780000     1.3327570000 
 C        2.6659620000     1.9145770000     1.7270750000 
 O        1.7639040000     1.4565740000     2.7415520000 
 C        2.1767160000     0.0999420000     2.5371620000 
 H        0.4577630000     0.0582370000    -1.1793150000 
 H        0.6296840000     1.4689140000    -0.1389630000 
 H        0.2089980000    -0.0918570000     0.5577770000 
 H        2.8612020000     0.5405020000    -0.8607260000 
 H        2.4425180000    -1.0128210000    -0.1673270000 
 H        4.8664760000     0.5635990000     0.5662040000 
 H        4.4787420000    -0.8745230000     1.2082120000 
 H        2.1746200000     2.5813130000     1.0118630000 
 H        3.5447870000     2.4085720000     2.1547840000 
 H        1.3235340000    -0.5754000000     2.4210760000 
 H        2.8266230000    -0.2551330000     3.3439100000 
*
