! RI PBE def2-SVP def2-SVP/J NBO PAL2
% maxcore 2000
% output
    # printlevel mini
    print[ P_Basis ] 0
    print[ P_SCFInfo ] 1
    print[ P_SCFIterInfo ] 1
    print[ P_OrbEn ] 0
    print[ P_Cartesian ] 0
end
*xyz 0 1
 C        0.9785250000    -0.0389040000     0.0727140000 
 C        2.4820420000     0.2075030000     0.0388930000 
 C        2.9377720000     0.7415650000    -1.2691550000 
 N        3.5103860000     1.9025800000    -1.3947950000 
 O        3.7611950000     2.0056850000    -2.7529720000 
 C        3.3071420000     0.8869360000    -3.2964250000 
 N        2.7878870000     0.0623040000    -2.4566050000 
 H        0.6844110000    -0.4678840000     1.0321980000 
 H        0.6812800000    -0.7302670000    -0.7174160000 
 H        0.4263220000     0.8929980000    -0.0656220000 
 H        3.0141300000    -0.7308960000     0.2233110000 
 H        2.7821580000     0.9120120000     0.8166100000 
 H        3.4146580000     0.7755880000    -4.3658270000 
*
