! RI PBE def2-SVP def2-SVP/J NBO PAL2
% maxcore 2000
% output
    # printlevel mini
    print[ P_Basis ] 0
    print[ P_SCFInfo ] 1
    print[ P_SCFIterInfo ] 1
    print[ P_OrbEn ] 0
    print[ P_Cartesian ] 0
end
*xyz 0 1
 C        1.3585400000    -0.1909450000     0.7853140000 
 C        2.3025450000     0.0934350000    -0.1043660000 
 C        2.9557500000    -0.9199440000    -0.9115620000 
 N        3.8817980000    -0.6141450000    -1.7799000000 
 O        4.2389750000    -1.8294260000    -2.3257790000 
 C        3.4855080000    -2.7418910000    -1.7245780000 
 N        2.6762030000    -2.2668220000    -0.8477830000 
 H        0.8908960000     0.5898440000     1.3719280000 
 H        1.0333170000    -1.2122300000     0.9456650000 
 H        2.6373090000     1.1105880000    -0.2748180000 
 H        3.6225780000    -3.7711760000    -2.0231110000 
*
