! RI PBE def2-SVP def2-SVP/J NBO PAL2
% maxcore 2000
% output
    # printlevel mini
    print[ P_Basis ] 0
    print[ P_SCFInfo ] 1
    print[ P_SCFIterInfo ] 1
    print[ P_OrbEn ] 0
    print[ P_Cartesian ] 0
end
*xyz 0 1
 C        1.0346700000    -0.0666940000    -0.1562670000 
 C        2.5441630000     0.0505790000     0.0302900000 
 C        2.9740940000     1.3973540000     0.4630790000 
 N        3.5421830000     1.7475070000     1.5636170000 
 N        3.7331700000     3.1177400000     1.4941170000 
 C        3.2640030000     3.4792990000     0.3591820000 
 O        2.7631690000     2.4554100000    -0.3586960000 
 H        0.7713640000    -1.0772230000    -0.4727940000 
 H        0.6748320000     0.6295750000    -0.9158000000 
 H        0.5088680000     0.1450110000     0.7766520000 
 H        3.0565040000    -0.1978650000    -0.9047360000 
 H        2.8983810000    -0.6469220000     0.7905090000 
 H        3.2273200000     4.4687290000    -0.0673430000 
*
