! RI PBE def2-SVP def2-SVP/J NBO PAL2
% maxcore 2000
% output
    # printlevel mini
    print[ P_Basis ] 0
    print[ P_SCFInfo ] 1
    print[ P_SCFIterInfo ] 1
    print[ P_OrbEn ] 0
    print[ P_Cartesian ] 0
end
*xyz 0 1
 C        1.6641810000     0.8748170000     0.6614420000 
 C        2.2633900000    -0.0262940000    -0.1155620000 
 C        2.9221700000     0.2874110000    -1.3613450000 
 N        3.4751340000    -0.6389880000    -2.0494560000 
 O        4.0368680000    -0.1322030000    -3.1832400000 
 C        3.8260390000     1.2948880000    -3.2462330000 
 C        3.0467500000     1.6468530000    -1.9868150000 
 H        1.1840200000     0.5856220000     1.5877200000 
 H        1.6328650000     1.9270660000     0.4002680000 
 H        2.2831630000    -1.0747880000     0.1646670000 
 H        3.2786900000     1.5106930000    -4.1659630000 
 H        4.8055450000     1.7746470000    -3.2952450000 
 H        2.0644630000     2.0790580000    -2.1931290000 
 H        3.5788200000     2.3379190000    -1.3283080000 
*
