! RI PBE def2-SVP def2-SVP/J NBO PAL2
% maxcore 2000
% output
    # printlevel mini
    print[ P_Basis ] 0
    print[ P_SCFInfo ] 1
    print[ P_SCFIterInfo ] 1
    print[ P_OrbEn ] 0
    print[ P_Cartesian ] 0
end
*xyz 0 1
 C        0.9704940000    -0.0677580000     0.2315420000 
 C        2.1655420000    -0.0783290000     0.1026230000 
 C        3.5690790000    -0.0016500000    -0.0411360000 
 N        4.2895740000    -1.0446110000    -0.2177850000 
 O        5.6004910000    -0.7033610000    -0.3264240000 
 C        5.7611810000     0.7287440000    -0.2079010000 
 C        4.3563010000     1.2799940000    -0.0043320000 
 H       -0.0879230000    -0.0822750000     0.3446550000 
 H        6.2359660000     1.0855680000    -1.1235950000 
 H        6.4255910000     0.9186050000     0.6369350000 
 H        4.0339320000     1.9598250000    -0.7956450000 
 H        4.2217830000     1.7942480000     0.9494620000 
*
