! RI PBE def2-SVP def2-SVP/J NBO PAL2
% maxcore 2000
% output
    # printlevel mini
    print[ P_Basis ] 0
    print[ P_SCFInfo ] 1
    print[ P_SCFIterInfo ] 1
    print[ P_OrbEn ] 0
    print[ P_Cartesian ] 0
end
*xyz 0 1
 C        3.9367000000     0.4325860000     0.6579960000 
 C        2.6281810000    -0.0828500000     0.0672150000 
 C        2.8226210000    -0.9843830000    -1.1005920000 
 N        2.4376920000    -2.1960750000    -1.0736280000 
 O        2.7008890000    -2.8127670000    -2.2819710000 
 C        3.5498530000    -1.9562840000    -3.0609820000 
 C        3.4085440000    -0.5843040000    -2.4263240000 
 H        3.7410090000     1.0845230000     1.5115890000 
 H        4.5110270000     1.0086420000    -0.0715310000 
 H        4.5612280000    -0.3949640000     1.0012110000 
 H        2.0124860000     0.7687750000    -0.2472220000 
 H        2.0595250000    -0.6298550000     0.8218350000 
 H        3.2206820000    -2.0122490000    -4.0986360000 
 H        4.5779260000    -2.3288080000    -2.9887610000 
 H        2.7112980000     0.0739830000    -2.9574690000 
 H        4.3573280000    -0.0541620000    -2.3337000000 
*
