! RI PBE def2-SVP def2-SVP/J NBO PAL2
% maxcore 2000
% output
    # printlevel mini
    print[ P_Basis ] 0
    print[ P_SCFInfo ] 1
    print[ P_SCFIterInfo ] 1
    print[ P_OrbEn ] 0
    print[ P_Cartesian ] 0
end
*xyz 0 1
 C        1.5102850000     0.5243190000    -0.8177910000 
 C        2.4171530000     0.0218540000     0.0147470000 
 C        3.1705520000     0.8232240000     0.9476130000 
 N        4.0431240000     0.3574600000     1.7521710000 
 O        4.5355070000     1.4413220000     2.4726940000 
 C        3.8666840000     2.6076570000     2.0162090000 
 O        2.9759200000     2.1606780000     1.0122870000 
 H        0.9685300000    -0.1168010000    -1.5014370000 
 H        1.2872160000     1.5842420000    -0.8372630000 
 H        2.6484350000    -1.0362450000     0.0430220000 
 H        4.5865510000     3.3148390000     1.5882530000 
 H        3.3037330000     3.0677610000     2.8364850000 
*
