! RI PBE def2-SVP def2-SVP/J NBO PAL2
% maxcore 2000
% output
    # printlevel mini
    print[ P_Basis ] 0
    print[ P_SCFInfo ] 1
    print[ P_SCFIterInfo ] 1
    print[ P_OrbEn ] 0
    print[ P_Cartesian ] 0
end
*xyz 0 1
 C        1.0141930000     0.2097790000     0.0437780000 
 C        2.4973440000    -0.1371220000    -0.0190900000 
 C        3.0806530000    -0.4298970000     1.3082890000 
 N        3.6168780000    -1.5267040000     1.6605780000 
 O        4.1031060000    -1.3107730000     2.9678120000 
 C        3.4835230000    -0.1347370000     3.4228470000 
 O        3.0872780000     0.5490510000     2.2445890000 
 H        0.6357910000     0.4316620000    -0.9554300000 
 H        0.8407020000     1.0832920000     0.6741660000 
 H        0.4358900000    -0.6233880000     0.4480330000 
 H        3.0576890000     0.6984950000    -0.4523510000 
 H        2.6732150000    -1.0102380000    -0.6486550000 
 H        4.1950810000     0.4695220000     3.9877950000 
 H        2.5872670000    -0.3642310000     4.0208480000 
*
