! RI PBE def2-SVP def2-SVP/J NBO PAL2
% maxcore 2000
% output
    # printlevel mini
    print[ P_Basis ] 0
    print[ P_SCFInfo ] 1
    print[ P_SCFIterInfo ] 1
    print[ P_OrbEn ] 0
    print[ P_Cartesian ] 0
end
*xyz 0 1
 C        2.5384680000    -0.7992270000    -0.5486060000 
 C        1.9182760000     0.0987020000     0.2028040000 
 C        2.6145220000     1.0109330000     1.1303670000 
 O        4.0259060000     0.9731760000     1.1624210000 
 C        3.4298550000     2.1367580000     0.6269540000 
 C        3.5631770000     3.3507940000     1.3948600000 
 N        3.6509470000     4.3324390000     1.9869130000 
 H        1.9859850000    -1.4499370000    -1.2148220000 
 H        3.6161350000    -0.9112770000    -0.5094360000 
 H        0.8364460000     0.1970000000     0.1787410000 
 H        2.1518410000     1.1567170000     2.1054670000 
 H        3.5271300000     2.2617120000    -0.4482540000 
*
