! RI PBE def2-SVP def2-SVP/J NBO PAL2
% maxcore 2000
% output
    # printlevel mini
    print[ P_Basis ] 0
    print[ P_SCFInfo ] 1
    print[ P_SCFIterInfo ] 1
    print[ P_OrbEn ] 0
    print[ P_Cartesian ] 0
end
*xyz 0 1
 C        0.9398010000     0.0015300000     0.0230840000 
 C        2.1383000000     0.0390680000     0.0413270000 
 C        3.5704180000     0.0863450000     0.1000210000 
 O        4.3008040000    -0.5915760000    -0.9120350000 
 C        4.3414700000     0.8175780000    -0.9257370000 
 C        5.5947050000     1.4418010000    -0.5761730000 
 N        6.5825770000     1.9622500000    -0.3034410000 
 H       -0.1243720000    -0.0357300000     0.0005760000 
 H        4.0090660000     0.0122180000     1.0922450000 
 H        3.8003220000     1.2975170000    -1.7365660000 
*
