! RI PBE def2-SVP def2-SVP/J NBO PAL2
% maxcore 2000
% output
    # printlevel mini
    print[ P_Basis ] 0
    print[ P_SCFInfo ] 1
    print[ P_SCFIterInfo ] 1
    print[ P_OrbEn ] 0
    print[ P_Cartesian ] 0
end
*xyz 0 1
 C        1.0473760000     0.0513060000    -0.1914890000 
 C        2.5514120000     0.1018630000     0.0273270000 
 C        3.2196930000     1.0917390000    -0.8765440000 
 O        4.6212590000     0.9862190000    -1.0503500000 
 C        3.8010000000     0.6845300000    -2.1637930000 
 C        3.8519730000     1.6012610000    -3.2771960000 
 N        3.8722810000     2.3148990000    -4.1784580000 
 H        0.5795160000    -0.6550020000     0.4961360000 
 H        0.8029670000    -0.2608500000    -1.2097240000 
 H        0.5878140000     1.0287970000    -0.0246670000 
 H        3.0035360000    -0.8813590000    -0.1323520000 
 H        2.7728660000     0.3833780000     1.0622150000 
 H        2.8658590000     2.1205810000    -0.8114570000 
 H        3.7665570000    -0.3643710000    -2.4493600000 
*
