! RI PBE def2-SVP def2-SVP/J NBO PAL2
% maxcore 2000
% output
    # printlevel mini
    print[ P_Basis ] 0
    print[ P_SCFInfo ] 1
    print[ P_SCFIterInfo ] 1
    print[ P_OrbEn ] 0
    print[ P_Cartesian ] 0
end
*xyz 0 1
 C        2.6310020000    -0.3816490000    -1.5913400000 
 C        2.4480600000     0.0429530000    -0.1439800000 
 C        2.9748230000    -0.9045900000     0.9049260000 
 O        2.8641890000    -0.3908860000     2.2052070000 
 C        2.8530440000    -2.4022830000     0.7859970000 
 C        4.2030630000    -1.7520950000     0.7219570000 
 N        5.1510700000    -1.9775890000     1.7723040000 
 H        2.1965210000     0.3628320000    -2.2614270000 
 H        2.1407780000    -1.3349300000    -1.8026200000 
 H        3.6860840000    -0.4793850000    -1.8565210000 
 H        1.3778870000     0.2004240000     0.0492070000 
 H        2.9314410000     1.0119120000     0.0218310000 
 H        1.9361220000    -0.4089730000     2.4561150000 
 H        2.4424820000    -2.8433370000    -0.1141370000 
 H        2.6168640000    -2.9336000000     1.7017120000 
 H        4.6647410000    -1.7287030000    -0.2588800000 
 H        4.6822300000    -1.8754530000     2.6656080000 
 H        5.8607100000    -1.2535380000     1.7484310000 
*
