! RI PBE def2-SVP def2-SVP/J NBO PAL2
% maxcore 2000
% output
    # printlevel mini
    print[ P_Basis ] 0
    print[ P_SCFInfo ] 1
    print[ P_SCFIterInfo ] 1
    print[ P_OrbEn ] 0
    print[ P_Cartesian ] 0
end
*xyz 0 1
 C        1.0187320000    -0.0193290000     0.1557090000 
 C        2.4882940000    -0.0822850000    -0.0567200000 
 C        3.1538090000    -0.5384150000    -1.1288030000 
 C        2.5281170000    -1.0939800000    -2.3674370000 
 C        4.6064300000    -0.4887740000    -1.0834750000 
 N        5.3076660000    -0.9027880000    -2.0610700000 
 O        6.6594790000    -0.7642540000    -1.8081080000 
 H        0.7006460000     1.0120090000     0.3415030000 
 H        0.7334930000    -0.5924780000     1.0442480000 
 H        0.4460310000    -0.4008500000    -0.6885920000 
 H        3.0912470000     0.2919560000     0.7691580000 
 H        1.4410750000    -1.0940460000    -2.3165360000 
 H        2.8711620000    -2.1170140000    -2.5405760000 
 H        2.8382240000    -0.5164670000    -3.2418350000 
 H        5.0909030000    -0.0876220000    -0.1906550000 
 H        7.0669830000    -1.1065640000    -2.6083110000 
*
