! RI PBE def2-SVP def2-SVP/J NBO PAL2
% maxcore 2000
% output
    # printlevel mini
    print[ P_Basis ] 0
    print[ P_SCFInfo ] 1
    print[ P_SCFIterInfo ] 1
    print[ P_OrbEn ] 0
    print[ P_Cartesian ] 0
end
*xyz 0 1
 C        0.8891960000     0.1909810000     0.2082430000 
 C        2.3719400000     0.2106920000     0.0766250000 
 C        3.0947850000     0.1363110000    -1.0450320000 
 C        2.5522430000     0.0563840000    -2.4343030000 
 C        4.5895990000     0.2295620000    -0.9871920000 
 N        5.1910820000    -0.2442490000     0.1391860000 
 O        5.2309480000     0.7201770000    -1.8961240000 
 H        0.5768060000    -0.6137240000     0.8817540000 
 H        0.3760530000     0.0516310000    -0.7419510000 
 H        0.5311700000     1.1236970000     0.6561600000 
 H        2.9097110000     0.3367640000     1.0138860000 
 H        1.4681980000     0.1474520000    -2.4664440000 
 H        2.8337200000    -0.8894130000    -2.9071420000 
 H        2.9968040000     0.8477780000    -3.0406820000 
 H        4.7092860000    -0.8804490000     0.7469390000 
 H        6.1967690000    -0.2495960000     0.1435770000 
*
