! RI PBE def2-SVP def2-SVP/J NBO PAL2
% maxcore 2000
% output
    # printlevel mini
    print[ P_Basis ] 0
    print[ P_SCFInfo ] 1
    print[ P_SCFIterInfo ] 1
    print[ P_OrbEn ] 0
    print[ P_Cartesian ] 0
end
*xyz 0 1
 C        0.9498420000     0.0907030000     0.0727810000 
 C        2.4329580000     0.1257380000    -0.0112590000 
 C        3.2529990000    -0.0182610000     1.0292500000 
 C        4.7194220000     0.0102840000     0.9873060000 
 C        5.4893050000    -0.1708420000     2.2571180000 
 N        5.2895040000     0.1904430000    -0.1422390000 
 O        6.6699490000     0.1936580000    -0.0266420000 
 H        0.5144920000     1.0257720000    -0.2956690000 
 H        0.6044070000    -0.0682880000     1.0961910000 
 H        0.5406560000    -0.7072520000    -0.5560850000 
 H        2.8712930000     0.2801180000    -0.9943100000 
 H        2.8243950000    -0.1733110000     2.0167440000 
 H        4.8220940000    -0.3098380000     3.1067000000 
 H        6.1284630000     0.6960060000     2.4421680000 
 H        6.1545050000    -1.0343720000     2.1795490000 
 H        6.9565050000     0.3357330000    -0.9325940000 
*
