! RI PBE def2-SVP def2-SVP/J NBO PAL2
% maxcore 2000
% output
    # printlevel mini
    print[ P_Basis ] 0
    print[ P_SCFInfo ] 1
    print[ P_SCFIterInfo ] 1
    print[ P_OrbEn ] 0
    print[ P_Cartesian ] 0
end
*xyz 0 1
 C        0.6335370000     0.3894050000    -0.2446480000 
 C        2.0648250000     0.1877120000     0.1162250000 
 C        3.0999020000     0.6423960000    -0.5794640000 
 C        4.5374940000     0.4359570000    -0.2091150000 
 C        5.2706490000    -0.3523630000    -1.2437030000 
 N        6.2411620000     0.1679270000    -1.8669640000 
 O        6.7881470000    -0.7052740000    -2.7924300000 
 H        0.1209820000    -0.5692460000    -0.3733160000 
 H        0.5313430000     0.9578350000    -1.1708850000 
 H        0.0994950000     0.9255020000     0.5463730000 
 H        2.2597710000    -0.3749230000     1.0289800000 
 H        2.9204120000     1.2033160000    -1.4955750000 
 H        4.5922500000    -0.0897540000     0.7506530000 
 H        5.0489430000     1.3963150000    -0.0932320000 
 H        4.9483190000    -1.3718310000    -1.4666780000 
 H        7.5005610000    -0.1899720000    -3.1803300000 
*
