! RI PBE def2-SVP def2-SVP/J NBO PAL2
% maxcore 2000
% output
    # printlevel mini
    print[ P_Basis ] 0
    print[ P_SCFInfo ] 1
    print[ P_SCFIterInfo ] 1
    print[ P_OrbEn ] 0
    print[ P_Cartesian ] 0
end
*xyz 0 1
 C        0.4970210000    -0.2515300000    -0.2329630000 
 C        1.9089320000     0.2206300000    -0.1674840000 
 C        2.9717980000    -0.5232810000    -0.4457200000 
 C        4.3836570000    -0.0399570000    -0.3794780000 
 C        5.2570120000    -0.9829060000     0.4324070000 
 N        6.0383240000    -0.3927560000     1.3699840000 
 O        5.2691960000    -2.1786790000     0.2348440000 
 H        0.0010880000    -0.1486530000     0.7375480000 
 H        0.4415920000    -1.2991210000    -0.5342710000 
 H       -0.0853020000     0.3405840000    -0.9462940000 
 H        2.0587750000     1.2583120000     0.1305420000 
 H        2.8496690000    -1.5637390000    -0.7364280000 
 H        4.4243060000     0.9840560000     0.0008160000 
 H        4.8217270000    -0.0320980000    -1.3857120000 
 H        5.9829270000     0.5877050000     1.5707050000 
 H        6.6256780000    -0.9781680000     1.9388040000 
*
