! RI PBE def2-SVP def2-SVP/J NBO PAL2
% maxcore 2000
% output
    # printlevel mini
    print[ P_Basis ] 0
    print[ P_SCFInfo ] 1
    print[ P_SCFIterInfo ] 1
    print[ P_OrbEn ] 0
    print[ P_Cartesian ] 0
end
*xyz 0 1
 C        1.0405950000     0.0909720000    -0.2234410000 
 C        2.3521200000     0.2676420000     0.5293780000 
 C        2.6631500000     1.7108190000     0.7741410000 
 C        3.7771120000     2.3281440000     0.4007400000 
 C        2.3407620000    -0.5699080000     1.8176720000 
 N        3.2105100000    -0.1647060000     2.7707020000 
 O        1.6350250000    -1.5469810000     1.9485890000 
 H        1.1004090000     0.5617870000    -1.2060940000 
 H        0.2135320000     0.5467980000     0.3261790000 
 H        0.8142950000    -0.9680460000    -0.3414840000 
 H        3.1669340000    -0.1594310000    -0.0703100000 
 H        1.8916540000     2.2770660000     1.2947780000 
 H        4.5644580000     1.8026390000    -0.1318960000 
 H        3.9370660000     3.3815580000     0.6001970000 
 H        3.7692140000     0.6607640000     2.6477930000 
 H        3.2797750000    -0.7014170000     3.6173550000 
*
