! RI PBE def2-SVP def2-SVP/J NBO PAL2
% maxcore 2000
% output
    # printlevel mini
    print[ P_Basis ] 0
    print[ P_SCFInfo ] 1
    print[ P_SCFIterInfo ] 1
    print[ P_OrbEn ] 0
    print[ P_Cartesian ] 0
end
*xyz 0 1
 C        1.0519160000     0.1502600000    -0.1015630000 
 C        2.5419350000     0.0388310000    -0.1304930000 
 C        3.0886290000    -0.7619060000    -1.2678920000 
 C        3.2873350000     0.6303240000     0.8147920000 
 C        4.7258240000     0.6069250000     0.9116620000 
 N        5.2968860000     1.2200710000     1.8731540000 
 O        6.6704670000     1.0907870000     1.8071420000 
 H        0.5894630000    -0.8413920000    -0.0438370000 
 H        0.6790470000     0.6108370000    -1.0231950000 
 H        0.7033540000     0.7426170000     0.7449210000 
 H        2.6839860000    -1.7794480000    -1.2441920000 
 H        4.1748120000    -0.8312590000    -1.2712300000 
 H        2.7736630000    -0.3279350000    -2.2229610000 
 H        2.7893010000     1.1911310000     1.6008390000 
 H        5.3341580000     0.0756500000     0.1795180000 
 H        6.9730220000     1.5879090000     2.5720260000 
*
