! RI PBE def2-SVP def2-SVP/J NBO PAL2
% maxcore 2000
% output
    # printlevel mini
    print[ P_Basis ] 0
    print[ P_SCFInfo ] 1
    print[ P_SCFIterInfo ] 1
    print[ P_OrbEn ] 0
    print[ P_Cartesian ] 0
end
*xyz 0 1
 C        1.0642060000    -0.1264650000    -0.0743480000 
 C        2.5470680000     0.0425590000     0.0248460000 
 C        3.0381950000     0.5290840000     1.3472540000 
 C        3.3223920000    -0.2386530000    -1.0303570000 
 C        4.7969860000    -0.1300980000    -1.1102160000 
 N        5.2983790000    -0.4892370000    -2.3251890000 
 O        5.5370830000     0.2361430000    -0.2141940000 
 H        0.5588390000     0.8231680000     0.1299490000 
 H        0.7106910000    -0.8336520000     0.6831810000 
 H        0.7504660000    -0.4830250000    -1.0560530000 
 H        2.5689010000     1.4909810000     1.5808660000 
 H        4.1185810000     0.6353190000     1.3681520000 
 H        2.7211210000    -0.1647280000     2.1334800000 
 H        2.8283420000    -0.5858270000    -1.9346500000 
 H        4.7149140000    -0.7944350000    -3.0809710000 
 H        6.2930470000    -0.4423440000    -2.4577490000 
*
