! RI PBE def2-SVP def2-SVP/J NBO PAL2
% maxcore 2000
% output
    # printlevel mini
    print[ P_Basis ] 0
    print[ P_SCFInfo ] 1
    print[ P_SCFIterInfo ] 1
    print[ P_OrbEn ] 0
    print[ P_Cartesian ] 0
end
*xyz 0 1
 C        0.8783210000     0.0274810000    -0.0433510000 
 C        2.4077320000    -0.0672620000    -0.0269190000 
 C        2.8784620000    -1.0954030000    -1.0466030000 
 C        3.0002920000     1.3074990000    -0.3543890000 
 C        2.8303710000    -0.4290110000     1.3675680000 
 N        3.4967810000    -1.4727520000     1.6192590000 
 O        3.7696700000    -1.5963340000     2.9738120000 
 H        0.5319110000     0.3545130000    -1.0273240000 
 H        0.5164510000     0.7474950000     0.6959560000 
 H        0.4229830000    -0.9412790000     0.1750340000 
 H        2.5532570000    -0.7995490000    -2.0475240000 
 H        2.4702870000    -2.0836700000    -0.8280180000 
 H        3.9664450000    -1.1811310000    -1.0473540000 
 H        2.6609620000     1.6387970000    -1.3394010000 
 H        4.0921690000     1.2720580000    -0.3627950000 
 H        2.6902600000     2.0587860000     0.3773170000 
 H        2.5419300000     0.2461640000     2.1788890000 
 H        4.2702140000    -2.4154140000     3.0183430000 
*
