! RI PBE def2-SVP def2-SVP/J NBO PAL2
% maxcore 2000
% output
    # printlevel mini
    print[ P_Basis ] 0
    print[ P_SCFInfo ] 1
    print[ P_SCFIterInfo ] 1
    print[ P_OrbEn ] 0
    print[ P_Cartesian ] 0
end
*xyz 0 1
 C        0.9371680000     0.1649810000     0.0167410000 
 C        2.4513690000     0.0250500000     0.1444640000 
 C        3.1722640000     0.8485610000    -0.9189360000 
 C        2.9241190000     0.3877130000     1.5389520000 
 C        3.5967360000    -0.6246470000     2.4099140000 
 N        2.7140660000     1.5850060000     1.9088840000 
 O        3.1792510000     1.8256390000     3.1965870000 
 H        0.6053290000    -0.1464050000    -0.9771880000 
 H        0.6410280000     1.2042410000     0.1716880000 
 H        0.4148950000    -0.4468070000     0.7562430000 
 H        2.7089450000    -1.0279630000    -0.0095010000 
 H        2.9441290000     1.9086310000    -0.7925400000 
 H        2.8577790000     0.5424120000    -1.9201100000 
 H        4.2561810000     0.7280420000    -0.8517800000 
 H        3.6806030000    -1.5880910000     1.9089110000 
 H        3.0425550000    -0.7528530000     3.3436020000 
 H        4.5946030000    -0.2801590000     2.6943780000 
 H        2.9540700000     2.7497280000     3.3311810000 
*
