! RI PBE def2-SVP def2-SVP/J NBO PAL2
% maxcore 2000
% output
    # printlevel mini
    print[ P_Basis ] 0
    print[ P_SCFInfo ] 1
    print[ P_SCFIterInfo ] 1
    print[ P_OrbEn ] 0
    print[ P_Cartesian ] 0
end
*xyz 0 1
 C        0.7649730000    -0.1028010000    -0.1839970000 
 C        2.2646830000     0.1030330000    -0.3431750000 
 C        2.6228500000     0.4531300000    -1.7796020000 
 C        2.7779630000     1.1734350000     0.6135810000 
 C        2.6836250000     0.7586110000     2.0684870000 
 N        2.3670080000     1.7508550000     2.9379320000 
 O        2.9023730000    -0.3757090000     2.4399230000 
 H        0.4072030000    -0.8927910000    -0.8487380000 
 H        0.2163510000     0.8121730000    -0.4328690000 
 H        0.5087980000    -0.3882070000     0.8386760000 
 H        2.7672750000    -0.8298340000    -0.0685470000 
 H        2.1540800000     1.3947290000    -2.0844040000 
 H        2.2793370000    -0.3226870000    -2.4682600000 
 H        3.7030580000     0.5611150000    -1.9090890000 
 H        2.2514470000     2.1194370000     0.4416550000 
 H        3.8398570000     1.3643860000     0.4179360000 
 H        2.1810780000     2.6877610000     2.6336590000 
 H        2.3418610000     1.5376720000     3.9201320000 
*
