! RI PBE def2-SVP def2-SVP/J NBO PAL2
% maxcore 2000
% output
    # printlevel mini
    print[ P_Basis ] 0
    print[ P_SCFInfo ] 1
    print[ P_SCFIterInfo ] 1
    print[ P_OrbEn ] 0
    print[ P_Cartesian ] 0
end
*xyz 0 1
 C        0.6421120000     0.0745010000    -0.4664530000 
 C        2.0053880000     0.0206610000     0.2288770000 
 C        3.0259450000    -0.5804380000    -0.6149890000 
 C        3.8680440000    -1.0649460000    -1.3222140000 
 C        2.3632220000     1.4179020000     0.7656010000 
 N        3.5607090000     1.9102380000     0.3973310000 
 O        1.5851410000     2.0078540000     1.4834100000 
 H        0.3059360000    -0.9310810000    -0.7204850000 
 H        0.7028510000     0.6599990000    -1.3854850000 
 H       -0.0798910000     0.5415950000     0.2024130000 
 H        1.9046530000    -0.5944480000     1.1312690000 
 H        4.6051290000    -1.5106670000    -1.9479250000 
 H        4.1737690000     1.3855550000    -0.2018810000 
 H        3.8317930000     2.8165850000     0.7363310000 
*
