! RI PBE def2-SVP def2-SVP/J NBO PAL2
% maxcore 2000
% output
    # printlevel mini
    print[ P_Basis ] 0
    print[ P_SCFInfo ] 1
    print[ P_SCFIterInfo ] 1
    print[ P_OrbEn ] 0
    print[ P_Cartesian ] 0
end
*xyz 0 1
 C        1.0269160000     0.1182320000    -0.1502240000 
 C        2.4275110000     0.2628000000     0.3377680000 
 C        3.5509270000    -0.2340530000    -0.5326280000 
 C        3.9108950000    -1.6479250000    -0.1896600000 
 C        3.7946490000    -2.6771840000    -1.0166220000 
 N        2.5870490000     0.7789920000     1.4890700000 
 O        3.9262220000     0.8438300000     1.8616380000 
 H        0.8192630000    -0.9280770000    -0.3945020000 
 H        0.8779600000     0.6991510000    -1.0657200000 
 H        0.3198130000     0.4567200000     0.6059070000 
 H        4.4209540000     0.4113830000    -0.3835120000 
 H        3.2482280000    -0.1743080000    -1.5810510000 
 H        4.2790250000    -1.8039810000     0.8210940000 
 H        3.4296640000    -2.5528700000    -2.0317720000 
 H        4.0676940000    -3.6808200000    -0.7118770000 
 H        3.8820290000     1.2774100000     2.7175790000 
*
