! RI PBE def2-SVP def2-SVP/J NBO PAL2
% maxcore 2000
% output
    # printlevel mini
    print[ P_Basis ] 0
    print[ P_SCFInfo ] 1
    print[ P_SCFIterInfo ] 1
    print[ P_OrbEn ] 0
    print[ P_Cartesian ] 0
end
*xyz 0 1
 C        1.2465520000    -0.1138720000    -0.5813700000 
 C        2.6643850000     0.2040690000    -0.2630870000 
 C        3.6669980000    -0.8877930000     0.0257810000 
 C        3.1456030000    -2.2405490000    -0.0301370000 
 C        2.7283850000    -3.3649100000    -0.0727900000 
 N        2.9979210000     1.4310300000    -0.2440980000 
 O        4.3429240000     1.5991350000     0.0643430000 
 H        0.7827580000    -0.6687120000     0.2386940000 
 H        1.1844040000    -0.7531560000    -1.4661760000 
 H        0.6921850000     0.8066820000    -0.7574860000 
 H        4.1068270000    -0.6974170000     1.0115690000 
 H        4.5025680000    -0.7802920000    -0.6754810000 
 H        2.3604990000    -4.3628710000    -0.1100130000 
 H        4.4457010000     2.5539660000     0.0423410000 
*
