! RI PBE def2-SVP def2-SVP/J NBO PAL2
% maxcore 2000
% output
    # printlevel mini
    print[ P_Basis ] 0
    print[ P_SCFInfo ] 1
    print[ P_SCFIterInfo ] 1
    print[ P_OrbEn ] 0
    print[ P_Cartesian ] 0
end
*xyz 0 1
 C        0.9266400000    -0.0202320000     0.0542820000 
 C        2.3744520000    -0.0431070000     0.0744580000 
 C        3.5779550000    -0.0802620000     0.1081580000 
 C        5.0004870000    -0.0613850000     0.0894980000 
 C        5.7148940000     0.9027170000    -0.8073700000 
 N        5.5976760000    -0.8922250000     0.8609570000 
 O        6.9689530000    -0.7756200000     0.7508460000 
 H        0.5279940000     0.2579370000     1.0334470000 
 H        0.5254060000    -1.0039480000    -0.2030740000 
 H        0.5548210000     0.6994150000    -0.6790240000 
 H        5.0047550000     1.5098630000    -1.3642730000 
 H        6.3568810000     0.3599850000    -1.5052760000 
 H        6.3661320000     1.5516170000    -0.2170630000 
 H        7.2870540000    -1.4398760000     1.3684330000 
*
