! RI PBE def2-SVP def2-SVP/J NBO PAL2
% maxcore 2000
% output
    # printlevel mini
    print[ P_Basis ] 0
    print[ P_SCFInfo ] 1
    print[ P_SCFIterInfo ] 1
    print[ P_OrbEn ] 0
    print[ P_Cartesian ] 0
end
*xyz 0 1
 C        1.1272980000    -0.1159690000    -0.2906720000 
 C        2.5728790000    -0.0672370000    -0.1705090000 
 C        3.7704370000    -0.0028820000    -0.0714880000 
 C        5.2159390000     0.0508680000     0.0485540000 
 C        5.9522740000    -1.2872250000     0.1395530000 
 N        5.1760760000    -2.3874150000     0.0988150000 
 O        7.1592070000    -1.3135550000     0.2411080000 
 H        0.8235060000    -0.6591290000    -1.1889370000 
 H        0.7115390000     0.8926680000    -0.3537600000 
 H        0.6754010000    -0.6100580000     0.5729550000 
 H        5.5096270000     0.6173340000     0.9373140000 
 H        5.6555450000     0.5793030000    -0.8026370000 
 H        4.1778430000    -2.3065220000     0.0135150000 
 H        5.6142380000    -3.2896820000     0.1553090000 
*
