! RI PBE def2-SVP def2-SVP/J NBO PAL2
% maxcore 2000
% output
    # printlevel mini
    print[ P_Basis ] 0
    print[ P_SCFInfo ] 1
    print[ P_SCFIterInfo ] 1
    print[ P_OrbEn ] 0
    print[ P_Cartesian ] 0
end
*xyz 0 1
 C        2.1470750000    -0.6139050000     1.3115180000 
 C        2.8137500000     0.0445440000     0.1070920000 
 C        3.2404340000    -0.9431070000    -0.9225630000 
 C        4.4919300000    -1.1143100000    -1.3538900000 
 C        4.8539300000    -2.0936360000    -2.3501430000 
 N        6.0671770000    -2.2067900000    -2.7205740000 
 O        6.2144130000    -3.1924410000    -3.6755610000 
 H        1.8149050000     0.1358610000     2.0329000000 
 H        2.8377920000    -1.2915120000     1.8181690000 
 H        1.2727330000    -1.1958630000     1.0084760000 
 H        3.6766770000     0.6346050000     0.4292560000 
 H        2.1048840000     0.7487620000    -0.3466480000 
 H        2.4559370000    -1.5761630000    -1.3376160000 
 H        5.3016040000    -0.5050190000    -0.9608910000 
 H        4.0818020000    -2.7340140000    -2.7818700000 
 H        7.1565760000    -3.1738220000    -3.8648650000 
*
