! RI PBE def2-SVP def2-SVP/J NBO PAL2
% maxcore 2000
% output
    # printlevel mini
    print[ P_Basis ] 0
    print[ P_SCFInfo ] 1
    print[ P_SCFIterInfo ] 1
    print[ P_OrbEn ] 0
    print[ P_Cartesian ] 0
end
*xyz 0 1
 C        2.1501280000     0.8909230000    -1.1977250000 
 C        2.9175800000    -0.0154560000    -0.2393730000 
 C        3.2176960000     0.6545400000     1.0541200000 
 C        4.4269130000     0.8354630000     1.5742390000 
 C        4.5951850000     1.5274880000     2.8771250000 
 N        5.8852120000     1.6424880000     3.2910590000 
 O        3.6679970000     1.9618760000     3.5322710000 
 H        1.9065220000     0.3628220000    -2.1219470000 
 H        2.7376200000     1.7747470000    -1.4555760000 
 H        1.2141030000     1.2333800000    -0.7498550000 
 H        3.8435270000    -0.3645440000    -0.7057770000 
 H        2.3109320000    -0.9068250000    -0.0360510000 
 H        2.3760300000     1.0419780000     1.6270060000 
 H        5.3136300000     0.4783190000     1.0554190000 
 H        6.6528870000     1.2835140000     2.7554620000 
 H        6.0666380000     2.0999980000     4.1669040000 
*
