! RI PBE def2-SVP def2-SVP/J NBO PAL2
% maxcore 2000
% output
    # printlevel mini
    print[ P_Basis ] 0
    print[ P_SCFInfo ] 1
    print[ P_SCFIterInfo ] 1
    print[ P_OrbEn ] 0
    print[ P_Cartesian ] 0
end
*xyz 0 1
 C        2.8419550000    -1.3676010000    -0.8637040000 
 C        2.4575210000    -0.1554890000    -0.0217910000 
 C        2.7844760000    -0.3239250000     1.4291010000 
 C        1.8660240000    -0.3726470000     2.3908830000 
 C        4.2500950000    -0.3470620000     1.7530050000 
 N        4.6153820000    -1.0850220000     2.8325720000 
 O        5.0544130000     0.2794140000     1.0917800000 
 H        2.6037710000    -1.1962740000    -1.9155980000 
 H        2.3044950000    -2.2614730000    -0.5371830000 
 H        3.9134420000    -1.5667910000    -0.7946490000 
 H        1.3895650000     0.0528310000    -0.1241530000 
 H        3.0039370000     0.7189500000    -0.3873780000 
 H        0.8089700000    -0.3019740000     2.1577830000 
 H        2.1311190000    -0.4409890000     3.4399570000 
 H        3.9875740000    -1.7531530000     3.2392060000 
 H        5.5971900000    -1.1504850000     3.0394590000 
*
