! RI PBE def2-SVP def2-SVP/J NBO PAL2
% maxcore 2000
% output
    # printlevel mini
    print[ P_Basis ] 0
    print[ P_SCFInfo ] 1
    print[ P_SCFIterInfo ] 1
    print[ P_OrbEn ] 0
    print[ P_Cartesian ] 0
end
*xyz 0 1
 C        1.7338850000    -1.5589750000     0.5367200000 
 C        2.1629120000    -0.0960280000     0.5984610000 
 C        3.0566800000     0.2108750000     1.7646870000 
 C        2.5301420000     0.3164090000     3.1227340000 
 C        1.2364510000     0.2878950000     3.4366590000 
 N        4.2956850000     0.3541730000     1.4719850000 
 O        5.0992320000     0.6144310000     2.5672240000 
 H        1.0793160000    -1.7314430000    -0.3205610000 
 H        1.1978310000    -1.8640420000     1.4372390000 
 H        2.6056600000    -2.2082550000     0.4317370000 
 H        1.2816930000     0.5522810000     0.6381880000 
 H        2.7096760000     0.1659060000    -0.3091080000 
 H        3.2677730000     0.4351940000     3.9070620000 
 H        0.4571310000     0.1781170000     2.6910640000 
 H        0.9132010000     0.3803300000     4.4667650000 
 H        5.9708400000     0.6894220000     2.1707450000 
*
