! RI PBE def2-SVP def2-SVP/J NBO PAL2
% maxcore 2000
% output
    # printlevel mini
    print[ P_Basis ] 0
    print[ P_SCFInfo ] 1
    print[ P_SCFIterInfo ] 1
    print[ P_OrbEn ] 0
    print[ P_Cartesian ] 0
end
*xyz 0 1
 C        3.2448420000     1.2035780000    -0.0368450000 
 C        2.7402410000    -0.2237080000    -0.1575710000 
 C        3.2269930000    -1.1511290000     0.9601470000 
 C        2.5576570000    -2.5201260000     0.8662380000 
 C        4.7109540000    -1.3048710000     0.9135080000 
 N        5.4313960000    -0.9575430000     1.8934650000 
 O        6.7772960000    -1.1929000000     1.6538500000 
 H        2.8638550000     1.8258400000    -0.8496210000 
 H        4.3361860000     1.2466530000    -0.0650510000 
 H        2.9257440000     1.6538640000     0.9069990000 
 H        3.0401180000    -0.6467330000    -1.1243010000 
 H        1.6450230000    -0.2313170000    -0.1523280000 
 H        2.9810670000    -0.6974790000     1.9261880000 
 H        2.8055490000    -3.0142740000    -0.0780030000 
 H        1.4706330000    -2.4187490000     0.9126940000 
 H        2.8752420000    -3.1734030000     1.6813240000 
 H        5.1696680000    -1.7328190000     0.0164910000 
 H        7.1963250000    -0.8881020000     2.4631260000 
*
