! RI PBE def2-SVP def2-SVP/J NBO PAL2
% maxcore 2000
% output
    # printlevel mini
    print[ P_Basis ] 0
    print[ P_SCFInfo ] 1
    print[ P_SCFIterInfo ] 1
    print[ P_OrbEn ] 0
    print[ P_Cartesian ] 0
end
*xyz 0 1
 C        3.7129710000    -0.2114950000    -1.2605060000 
 C        2.9559070000    -0.5448630000     0.0137340000 
 C        3.3828010000     0.2868130000     1.2216520000 
 C        2.5399050000    -0.0295990000     2.4545890000 
 C        4.8635230000     0.1666170000     1.5559010000 
 N        5.3433760000    -1.0965440000     1.6887590000 
 O        5.5708130000     1.1389180000     1.7209480000 
 H        3.3606990000    -0.8160550000    -2.0990860000 
 H        4.7850410000    -0.3901410000    -1.1467220000 
 H        3.5824670000     0.8400210000    -1.5283670000 
 H        3.0548670000    -1.6144540000     0.2397370000 
 H        1.8836730000    -0.3820750000    -0.1404100000 
 H        3.2563610000     1.3449730000     0.9761450000 
 H        2.6270640000    -1.0813230000     2.7418320000 
 H        1.4849800000     0.1725650000     2.2539460000 
 H        2.8453200000     0.5787390000     3.3081540000 
 H        4.7679080000    -1.9072650000     1.5581410000 
 H        6.3074330000    -1.2158400000     1.9460640000 
*
