! RI PBE def2-SVP def2-SVP/J NBO PAL2
% maxcore 2000
% output
    # printlevel mini
    print[ P_Basis ] 0
    print[ P_SCFInfo ] 1
    print[ P_SCFIterInfo ] 1
    print[ P_OrbEn ] 0
    print[ P_Cartesian ] 0
end
*xyz 0 1
 C        2.3871000000    -0.0515560000     1.0269670000 
 C        1.9952800000     0.6663550000    -0.2492090000 
 C        3.1142410000     0.9753990000    -1.1969450000 
 C        2.7959280000     1.7638080000    -2.4324230000 
 C        3.0850160000     3.2530820000    -2.2539940000 
 N        4.2769690000     0.5647670000    -0.8867960000 
 O        5.2350400000     0.9169740000    -1.8342160000 
 H        1.5064110000    -0.2283150000     1.6481300000 
 H        3.1046250000     0.5340920000     1.6037430000 
 H        2.8549100000    -1.0128510000     0.8099750000 
 H        1.4913990000     1.6131560000    -0.0135660000 
 H        1.2488410000     0.0802190000    -0.8010690000 
 H        1.7397570000     1.6192120000    -2.6775750000 
 H        3.3865960000     1.3754410000    -3.2648140000 
 H        2.5083530000     3.6734300000    -1.4262450000 
 H        2.8231010000     3.8072770000    -3.1579530000 
 H        4.1436140000     3.4162350000    -2.0479740000 
 H        6.0335180000     0.5215640000    -1.4759260000 
*
