! RI PBE def2-SVP def2-SVP/J NBO PAL2
% maxcore 2000
% output
    # printlevel mini
    print[ P_Basis ] 0
    print[ P_SCFInfo ] 1
    print[ P_SCFIterInfo ] 1
    print[ P_OrbEn ] 0
    print[ P_Cartesian ] 0
end
*xyz 0 1
 C        1.0693370000    -0.0440460000     0.1269220000 
 C        2.3960800000    -0.1053830000     0.1988360000 
 C        3.3264960000     0.9040320000    -0.4210300000 
 C        3.7314160000     1.9318770000     0.5287440000 
 N        4.0319550000     2.7521950000     1.2752350000 
 C        3.0181350000    -1.2414500000     0.9075360000 
 O        4.2054190000    -1.4254000000     0.9633120000 
 H        0.5497200000     0.7537520000    -0.3913870000 
 H        0.4594200000    -0.8079310000     0.5985600000 
 H        2.8519760000     1.3917610000    -1.2753630000 
 H        4.2285860000     0.3941910000    -0.7713600000 
 H        2.2993690000    -1.9390070000     1.3844930000 
*
