! RI PBE def2-SVP def2-SVP/J NBO PAL2
% maxcore 2000
% output
    # printlevel mini
    print[ P_Basis ] 0
    print[ P_SCFInfo ] 1
    print[ P_SCFIterInfo ] 1
    print[ P_OrbEn ] 0
    print[ P_Cartesian ] 0
end
*xyz 0 1
 C        1.0538420000    -0.0470920000     0.3919900000 
 C        2.3632120000    -0.0714710000     0.1380000000 
 C        2.9463420000    -0.3563320000    -1.1497750000 
 C        4.2678070000    -0.3704340000    -1.3612690000 
 N        4.8744240000    -0.6364280000    -2.5707580000 
 C        6.2219520000    -0.6490510000    -2.7785840000 
 O        6.7405870000    -0.8822590000    -3.8402580000 
 H        0.6748710000     0.1736870000     1.3816690000 
 H        0.3223970000    -0.2476170000    -0.3841150000 
 H        3.0608580000     0.1359070000     0.9473510000 
 H        2.2680050000    -0.5666960000    -1.9739760000 
 H        4.9632230000    -0.1634360000    -0.5533860000 
 H        4.3027630000    -0.8401350000    -3.3786730000 
 H        6.7921270000    -0.4188630000    -1.8597260000 
*
