! RI PBE def2-SVP def2-SVP/J NBO PAL2
% maxcore 2000
% output
    # printlevel mini
    print[ P_Basis ] 0
    print[ P_SCFInfo ] 1
    print[ P_SCFIterInfo ] 1
    print[ P_OrbEn ] 0
    print[ P_Cartesian ] 0
end
*xyz 0 1
 C        1.3394550000    -0.3384900000     0.4098290000 
 C        2.4769710000    -0.0144800000    -0.1947620000 
 C        3.0986840000     1.3142660000    -0.1314240000 
 C        2.3994020000     2.4524440000    -0.1776590000 
 N        4.4969320000     1.2896920000    -0.0525860000 
 C        5.3480630000     2.2088760000    -0.5909180000 
 O        6.5454040000     2.1780980000    -0.4549950000 
 H        0.9128700000    -1.3290290000     0.3091210000 
 H        0.8062460000     0.3758040000     1.0275580000 
 H        3.0178710000    -0.7659230000    -0.7665170000 
 H        1.3364590000     2.4224710000    -0.3713710000 
 H        2.8636800000     3.4205640000    -0.0438780000 
 H        4.9402790000     0.5104900000     0.4118980000 
 H        4.8214840000     2.9751970000    -1.1850150000 
*
