! RI PBE def2-SVP def2-SVP/J NBO PAL2
% maxcore 2000
% output
    # printlevel mini
    print[ P_Basis ] 0
    print[ P_SCFInfo ] 1
    print[ P_SCFIterInfo ] 1
    print[ P_OrbEn ] 0
    print[ P_Cartesian ] 0
end
*xyz 0 1
 C        0.9969850000    -0.0982910000    -0.4335750000 
 C        2.4581600000     0.0447520000    -0.1738630000 
 C        3.0735520000     0.4644340000     0.9320920000 
 C        2.3657310000     0.8969240000     2.1848250000 
 N        2.7332970000     0.0276080000     3.3094670000 
 C        4.5757570000     0.5491580000     0.9880960000 
 O        5.1541050000    -0.3270730000     1.9303860000 
 H        0.7665870000    -1.1173010000    -0.7599660000 
 H        0.6817010000     0.5646910000    -1.2460280000 
 H        0.3784380000     0.1233460000     0.4360600000 
 H        3.0976000000    -0.2301010000    -1.0116590000 
 H        1.2834380000     0.9602140000     2.0277790000 
 H        2.7073320000     1.9071780000     2.4392940000 
 H        2.3262940000    -0.8922160000     3.1870210000 
 H        2.3866990000     0.4014280000     4.1839160000 
 H        4.8619500000     1.5918950000     1.2102360000 
 H        4.9966720000     0.2996760000     0.0106210000 
 H        4.5806840000    -0.2876320000     2.7149980000 
*
