! RI PBE def2-SVP def2-SVP/J NBO PAL2
% maxcore 2000
% output
    # printlevel mini
    print[ P_Basis ] 0
    print[ P_SCFInfo ] 1
    print[ P_SCFIterInfo ] 1
    print[ P_OrbEn ] 0
    print[ P_Cartesian ] 0
end
*xyz 0 1
 C        1.2492490000     0.7595690000     0.0660870000 
 C        2.1405870000    -0.1047880000    -0.7632770000 
 C        3.4223660000     0.0325440000    -1.0986040000 
 C        4.4732880000     1.0785710000    -0.8163820000 
 N        5.7050240000     0.5105470000    -0.2708370000 
 C        4.0947590000     2.2646370000     0.0464980000 
 O        3.8995220000     1.8423660000     1.3859770000 
 H        0.6018350000     0.1340790000     0.6869620000 
 H        0.5840410000     1.3524370000    -0.5722410000 
 H        1.7953450000     1.4280530000     0.7274070000 
 H        1.6506720000    -0.9898540000    -1.1662470000 
 H        3.8251320000    -0.7605270000    -1.7297240000 
 H        4.7332850000     1.5137800000    -1.7924470000 
 H        5.9988990000    -0.2857850000    -0.8236170000 
 H        5.5083540000     0.1661770000     0.6625760000 
 H        3.1918960000     2.7466840000    -0.3487240000 
 H        4.9228070000     2.9789690000    -0.0082520000 
 H        4.0839290000     2.5796230000     1.9701340000 
*
