! RI PBE def2-SVP def2-SVP/J NBO PAL2
% maxcore 2000
% output
    # printlevel mini
    print[ P_Basis ] 0
    print[ P_SCFInfo ] 1
    print[ P_SCFIterInfo ] 1
    print[ P_OrbEn ] 0
    print[ P_Cartesian ] 0
end
*xyz 0 1
 C        2.8724270000    -0.7545560000    -1.3384440000 
 C        2.6771960000    -0.6781570000     0.1456660000 
 C        2.0611930000    -1.6473450000     0.8148430000 
 C        3.2059960000     0.5699320000     0.8150340000 
 N        2.9768130000     0.7047360000     2.2437600000 
 C        4.7115470000     0.7531100000     0.5980960000 
 O        5.1533640000     1.9433740000     1.1889420000 
 H        2.3143270000    -1.5873460000    -1.7673730000 
 H        3.9267380000    -0.8884830000    -1.5979090000 
 H        2.5432690000     0.1688490000    -1.8259270000 
 H        1.6842260000    -2.5269500000     0.3052610000 
 H        1.9022380000    -1.6015390000     1.8857600000 
 H        2.7217140000     1.4320940000     0.3363340000 
 H        3.2820430000    -0.1282310000     2.7348350000 
 H        1.9969360000     0.8412690000     2.4531250000 
 H        4.9477520000     0.8029250000    -0.4663160000 
 H        5.2348880000    -0.1234020000     1.0163740000 
 H        4.6406430000     2.0135000000     2.0081180000 
*
