! RI PBE def2-SVP def2-SVP/J NBO PAL2
% maxcore 2000
% output
    # printlevel mini
    print[ P_Basis ] 0
    print[ P_SCFInfo ] 1
    print[ P_SCFIterInfo ] 1
    print[ P_OrbEn ] 0
    print[ P_Cartesian ] 0
end
*xyz 0 1
 C        0.8617730000    -0.3024020000     0.0010120000 
 C        2.2514330000     0.2347780000     0.1188270000 
 C        2.5255590000     1.4359640000     0.6174100000 
 C        3.3560130000    -0.6554170000    -0.3817250000 
 N        3.4430540000    -1.9030960000     0.3475420000 
 C        3.2278990000    -3.1122830000    -0.2157480000 
 O        2.9491890000    -3.3070000000    -1.3762800000 
 H        0.1280000000     0.3957060000     0.4046930000 
 H        0.7617090000    -1.2545320000     0.5299970000 
 H        0.6145640000    -0.5040150000    -1.0460690000 
 H        1.7408420000     2.0994340000     0.9639280000 
 H        3.5450430000     1.8013180000     0.6836540000 
 H        4.3129640000    -0.1283560000    -0.3314920000 
 H        3.1787070000    -0.9342850000    -1.4240060000 
 H        3.6477160000    -1.8710380000     1.3322580000 
 H        3.3381340000    -3.9354760000     0.5154880000 
*
