! RI PBE def2-SVP def2-SVP/J NBO PAL2
% maxcore 2000
% output
    # printlevel mini
    print[ P_Basis ] 0
    print[ P_SCFInfo ] 1
    print[ P_SCFIterInfo ] 1
    print[ P_OrbEn ] 0
    print[ P_Cartesian ] 0
end
*xyz 0 1
 C        1.0502170000     0.0589820000    -0.0710740000 
 C        2.5748400000     0.0610080000    -0.0132610000 
 C        3.1117030000     1.3664480000    -0.5896120000 
 C        3.0607110000    -0.0444540000     1.4377140000 
 N        2.6342680000    -1.2821200000     2.0923780000 
 C        3.1412100000    -1.0981690000    -0.8453760000 
 O        2.6737400000    -2.3667450000    -0.4707380000 
 H        0.6316830000     0.8489540000     0.5606440000 
 H        0.6375410000    -0.9012160000     0.2439000000 
 H        0.7065660000     0.2331770000    -1.0941090000 
 H        2.7511160000     2.2272280000    -0.0196390000 
 H        2.7879640000     1.4947050000    -1.6256580000 
 H        4.2056500000     1.3893270000    -0.5751220000 
 H        2.7394330000     0.8560470000     1.9832190000 
 H        4.1556550000    -0.0376000000     1.4335110000 
 H        1.6497910000    -1.2437690000     2.3268300000 
 H        3.1392930000    -1.4208680000     2.9578510000 
 H        4.2422480000    -1.0499100000    -0.7934690000 
 H        2.8651730000    -0.9512840000    -1.8954560000 
 H        2.7235900000    -2.3864500000     0.5017760000 
*
