! RI PBE def2-SVP def2-SVP/J NBO PAL2
% maxcore 2000
% output
    # printlevel mini
    print[ P_Basis ] 0
    print[ P_SCFInfo ] 1
    print[ P_SCFIterInfo ] 1
    print[ P_OrbEn ] 0
    print[ P_Cartesian ] 0
end
*xyz 0 1
 C        1.6698000000     0.3972090000     0.9218820000 
 C        2.5375930000    -0.4558290000     0.0046500000 
 C        1.7057550000    -1.5426980000    -0.6615440000 
 C        3.3140810000     0.3688230000    -1.0412190000 
 N        2.5086130000     1.1038100000    -2.0026410000 
 C        4.2813890000     1.3714480000    -0.4180170000 
 O        5.1829870000     0.8036150000     0.5059960000 
 H        1.1590790000    -0.2263800000     1.6593910000 
 H        0.8939880000     0.9253250000     0.3585470000 
 H        2.2457930000     1.1472690000     1.4710580000 
 H        3.2937650000    -0.9618030000     0.6189810000 
 H        2.3188150000    -2.1709950000    -1.3136090000 
 H        1.2378380000    -2.1912590000     0.0831570000 
 H        0.9008790000    -1.1130740000    -1.2658240000 
 H        3.9219700000    -0.3427590000    -1.6129610000 
 H        1.8643600000     1.7317320000    -1.5372970000 
 H        1.9617870000     0.4821380000    -2.5827800000 
 H        3.7161420000     2.1985340000     0.0366040000 
 H        4.8843720000     1.8031950000    -1.2178490000 
 H        4.7037120000     0.5787990000     1.3065640000 
*
