! RI PBE def2-SVP def2-SVP/J NBO PAL2
% maxcore 2000
% output
    # printlevel mini
    print[ P_Basis ] 0
    print[ P_SCFInfo ] 1
    print[ P_SCFIterInfo ] 1
    print[ P_OrbEn ] 0
    print[ P_Cartesian ] 0
end
*xyz 0 1
 C        0.8322980000     0.6106660000     0.3394290000 
 C        2.2690240000     0.1528730000     0.5375510000 
 C        2.5113680000    -0.3020870000     1.9683980000 
 C        2.5989310000    -0.9459050000    -0.4718920000 
 N        3.9789860000    -1.3747380000    -0.4571330000 
 C        4.9257460000    -0.8066480000    -1.2340060000 
 O        4.7349480000     0.0949560000    -2.0178530000 
 H        0.5807620000     1.4207410000     1.0276700000 
 H        0.1302240000    -0.2091300000     0.5247350000 
 H        0.6651650000     0.9713380000    -0.6785410000 
 H        2.9358060000     0.9950480000     0.3193520000 
 H        1.8674100000    -1.1512710000     2.2226100000 
 H        2.2920760000     0.5001920000     2.6768760000 
 H        3.5498780000    -0.6028550000     2.1278860000 
 H        2.3870960000    -0.5868220000    -1.4811410000 
 H        1.9641020000    -1.8194680000    -0.2880370000 
 H        4.2660730000    -2.1044990000     0.1712830000 
 H        5.9217170000    -1.2660090000    -1.0847880000 
*
