! RI PBE def2-SVP def2-SVP/J NBO PAL2
% maxcore 2000
% output
    # printlevel mini
    print[ P_Basis ] 0
    print[ P_SCFInfo ] 1
    print[ P_SCFIterInfo ] 1
    print[ P_OrbEn ] 0
    print[ P_Cartesian ] 0
end
*xyz 0 1
 C        2.6429240000    -1.1042400000    -1.0300050000 
 C        3.0516820000     0.1033030000    -0.1929640000 
 C        3.1653910000    -0.2086400000     1.2619340000 
 C        4.2860870000    -0.0775200000     1.9651790000 
 N        4.4235450000    -0.3662000000     3.3151010000 
 C        5.5750480000    -0.2292420000     4.0237280000 
 O        5.6882110000    -0.4832300000     5.1973800000 
 H        2.5359200000    -0.8346300000    -2.0832840000 
 H        1.6860360000    -1.5109280000    -0.6920780000 
 H        3.3861910000    -1.9012590000    -0.9554220000 
 H        2.3118000000     0.9002300000    -0.3375300000 
 H        4.0047270000     0.5017870000    -0.5551900000 
 H        2.2684790000    -0.5768200000     1.7584930000 
 H        5.1997660000     0.2823580000     1.5008610000 
 H        3.6246690000    -0.7050160000     3.8319270000 
 H        6.4096340000     0.1453260000     3.4020600000 
*
