! RI PBE def2-SVP def2-SVP/J NBO PAL2
% maxcore 2000
% output
    # printlevel mini
    print[ P_Basis ] 0
    print[ P_SCFInfo ] 1
    print[ P_SCFIterInfo ] 1
    print[ P_OrbEn ] 0
    print[ P_Cartesian ] 0
end
*xyz 0 1
 C        2.3846560000     0.5278240000    -1.4538580000 
 C        2.2313100000     0.0759640000    -0.0051760000 
 C        2.9636240000    -1.1947740000     0.3076490000 
 C        2.3461490000    -2.3363760000     0.6096190000 
 N        4.3569410000    -1.0752270000     0.2379790000 
 C        5.2496650000    -2.0563960000    -0.0709600000 
 O        6.4459530000    -1.8991760000    -0.0728000000 
 H        1.8512030000     1.4652710000    -1.6233440000 
 H        1.9804180000    -0.2218640000    -2.1373290000 
 H        3.4319840000     0.6881220000    -1.7185430000 
 H        1.1767940000    -0.0661190000     0.2371360000 
 H        2.5960400000     0.8658430000     0.6646960000 
 H        1.2660830000    -2.3848380000     0.5837810000 
 H        2.8799860000    -3.2362110000     0.8855400000 
 H        4.7652390000    -0.1638350000     0.3881830000 
 H        4.7632450000    -3.0082880000    -0.3411820000 
*
