! RI PBE def2-SVP def2-SVP/J NBO PAL2
% maxcore 2000
% output
    # printlevel mini
    print[ P_Basis ] 0
    print[ P_SCFInfo ] 1
    print[ P_SCFIterInfo ] 1
    print[ P_OrbEn ] 0
    print[ P_Cartesian ] 0
end
*xyz 0 1
 C        0.5893080000    -0.4885020000     0.3852430000 
 C        1.9286060000    -0.4345550000    -0.2566210000 
 C        3.0869530000    -0.4665000000     0.3998370000 
 C        4.4074110000    -0.4278250000    -0.2391020000 
 N        5.4925810000    -0.9363400000     0.2107720000 
 N        4.4695530000     0.1879350000    -1.4679040000 
 O        5.7600970000     0.3069050000    -1.9633520000 
 H       -0.0000040000     0.3972470000     0.1274240000 
 H        0.6620170000    -0.5492280000     1.4722850000 
 H        0.0215980000    -1.3525740000     0.0261500000 
 H        1.9505320000    -0.3863890000    -1.3432850000 
 H        3.0979930000    -0.5589390000     1.4829370000 
 H        5.3559860000    -1.4314560000     1.0833300000 
 H        4.0055560000     1.0856610000    -1.5126700000 
 H        6.2803130000    -0.1339490000    -1.2520550000 
*
