! RI PBE def2-SVP def2-SVP/J NBO PAL2
% maxcore 2000
% output
    # printlevel mini
    print[ P_Basis ] 0
    print[ P_SCFInfo ] 1
    print[ P_SCFIterInfo ] 1
    print[ P_OrbEn ] 0
    print[ P_Cartesian ] 0
end
*xyz 0 1
 C        0.9844770000    -0.5813870000     1.3266850000 
 C        1.6053380000     0.3359860000     0.3273320000 
 C        2.8657670000     1.0594140000     0.6888810000 
 C        2.5913870000     2.4613830000     1.2267430000 
 N        3.8421670000     3.0940340000     1.6156980000 
 N        0.9980560000     0.4553780000    -0.7849250000 
 O        1.6423490000     1.3358230000    -1.6502090000 
 H        1.6632760000    -1.4077410000     1.5590670000 
 H        0.0466370000    -0.9857190000     0.9477890000 
 H        0.7929150000    -0.0534250000     2.2661710000 
 H        3.5019870000     1.1371500000    -0.1971190000 
 H        3.4115340000     0.4958530000     1.4497100000 
 H        1.9606050000     2.3891770000     2.1186570000 
 H        2.0198990000     3.0195540000     0.4726140000 
 H        4.4187410000     3.2564440000     0.7982210000 
 H        3.6670880000     3.9995000000     2.0331480000 
 H        1.0922580000     1.2902850000    -2.4361630000 
*
