! RI PBE def2-SVP def2-SVP/J NBO PAL2
% maxcore 2000
% output
    # printlevel mini
    print[ P_Basis ] 0
    print[ P_SCFInfo ] 1
    print[ P_SCFIterInfo ] 1
    print[ P_OrbEn ] 0
    print[ P_Cartesian ] 0
end
*xyz 0 1
 C        0.8704960000    -0.0121040000     0.0161040000 
 C        2.3174960000    -0.0374030000     0.0075120000 
 C        3.5209480000    -0.0574070000    -0.0034530000 
 C        4.9493420000    -0.1102190000    -0.0364240000 
 N        5.6830890000    -0.7322410000    -0.8823800000 
 N        5.5819330000     0.6194880000     0.9365040000 
 O        6.9422170000     0.3785930000     1.0161190000 
 H        0.4725040000    -0.8198560000     0.6353520000 
 H        0.4746460000    -0.1338120000    -0.9948460000 
 H        0.5010940000     0.9353330000     0.4153360000 
 H        5.1365040000    -1.1922120000    -1.5986100000 
 H        5.1615130000     0.5955980000     1.8552800000 
 H        7.0753070000    -0.2323570000     0.2557060000 
*
