! RI PBE def2-SVP def2-SVP/J NBO PAL2
% maxcore 2000
% output
    # printlevel mini
    print[ P_Basis ] 0
    print[ P_SCFInfo ] 1
    print[ P_SCFIterInfo ] 1
    print[ P_OrbEn ] 0
    print[ P_Cartesian ] 0
end
*xyz 0 1
 C        2.0899810000     0.6792030000     1.4651480000 
 C        2.5035300000     0.0814860000     0.1241740000 
 C        3.0369490000     1.0996260000    -0.8322290000 
 C        2.1115900000     2.1235450000    -1.4316660000 
 N        1.8019310000     1.7565710000    -2.8095300000 
 N        4.2749990000     1.0262460000    -1.1125860000 
 O        4.6688110000     2.0059030000    -2.0251940000 
 H        1.6733470000    -0.0916330000     2.1168290000 
 H        1.3302450000     1.4559180000     1.3479250000 
 H        2.9488040000     1.1238380000     1.9726460000 
 H        1.6403090000    -0.4024140000    -0.3474980000 
 H        3.2676570000    -0.6838390000     0.2735270000 
 H        2.5741680000     3.1148560000    -1.3254240000 
 H        1.1789570000     2.1314590000    -0.8627540000 
 H        2.6482500000     1.8178000000    -3.3628920000 
 H        1.1409720000     2.4159460000    -3.2015210000 
 H        5.6091010000     1.8346800000    -2.1197540000 
*
