! RI PBE def2-SVP def2-SVP/J NBO PAL2
% maxcore 2000
% output
    # printlevel mini
    print[ P_Basis ] 0
    print[ P_SCFInfo ] 1
    print[ P_SCFIterInfo ] 1
    print[ P_OrbEn ] 0
    print[ P_Cartesian ] 0
end
*xyz 0 1
 C        2.1839120000     0.6162130000     1.3974300000 
 C        2.5818570000     0.0195920000     0.0512210000 
 C        2.6361540000     1.0384730000    -1.0436110000 
 C        1.3856730000     1.7246530000    -1.4901180000 
 N        3.7847550000     1.2737960000    -1.5419580000 
 O        3.7335030000     2.2396340000    -2.5311610000 
 C        5.0284570000     2.4282860000    -3.0544050000 
 H        2.1248650000    -0.1615740000     2.1617220000 
 H        1.2090800000     1.1079160000     1.3502820000 
 H        2.9172260000     1.3569180000     1.7239530000 
 H        1.8593020000    -0.7564100000    -0.2295990000 
 H        3.5615790000    -0.4566140000     0.1227100000 
 H        0.5065410000     1.2975480000    -1.0076640000 
 H        1.2778270000     1.6439210000    -2.5740300000 
 H        1.4286000000     2.7931400000    -1.2624830000 
 H        4.9334680000     3.1967760000    -3.8220190000 
 H        5.4114010000     1.5061180000    -3.5013160000 
 H        5.7212300000     2.7659130000    -2.2780510000 
*
