! RI PBE def2-SVP def2-SVP/J NBO PAL2
% maxcore 2000
% output
    # printlevel mini
    print[ P_Basis ] 0
    print[ P_SCFInfo ] 1
    print[ P_SCFIterInfo ] 1
    print[ P_OrbEn ] 0
    print[ P_Cartesian ] 0
end
*xyz 0 1
 C        3.1425760000    -0.8125010000     1.1751590000 
 C        2.5970070000     0.0651680000     0.0616740000 
 C        3.0296160000    -0.3876470000    -1.3339020000 
 C        4.4941760000    -0.2530650000    -1.5587890000 
 N        5.1978520000    -1.2637650000    -1.8563430000 
 O        6.5265330000    -0.9332130000    -2.0290180000 
 C        7.2559280000    -2.0936920000    -2.3607270000 
 H        2.8088180000    -0.4611880000     2.1540430000 
 H        4.2351900000    -0.8226300000     1.1773700000 
 H        2.8078010000    -1.8468670000     1.0584900000 
 H        2.9125620000     1.1031100000     0.2180080000 
 H        1.5033730000     0.0724960000     0.0988200000 
 H        2.5073740000     0.2207020000    -2.0822810000 
 H        2.7446740000    -1.4292330000    -1.5049530000 
 H        4.9622190000     0.7305690000    -1.4615460000 
 H        8.2897030000    -1.7704870000    -2.4840180000 
 H        6.8935660000    -2.5336930000    -3.2943210000 
 H        7.1956140000    -2.8392720000    -1.5625640000 
*
