! RI PBE def2-SVP def2-SVP/J NBO PAL2
% maxcore 2000
% output
    # printlevel mini
    print[ P_Basis ] 0
    print[ P_SCFInfo ] 1
    print[ P_SCFIterInfo ] 1
    print[ P_OrbEn ] 0
    print[ P_Cartesian ] 0
end
*xyz 0 1
 C        1.8663500000     0.5057450000     0.2866320000 
 C        2.8696890000    -0.2942090000    -0.0400570000 
 C        2.6857520000    -1.6278990000    -0.6997470000 
 C        3.2894250000    -1.6750630000    -2.0784730000 
 O        2.7047340000    -1.9793380000    -3.0790620000 
 C        4.7221020000    -1.3166200000    -2.1464960000 
 N        5.8400490000    -1.0479940000    -2.1736070000 
 H        2.0439100000     1.4604560000     0.7670040000 
 H        0.8336450000     0.2343630000     0.0926070000 
 H        3.8932240000     0.0080180000     0.1665810000 
 H        1.6317230000    -1.8895820000    -0.7987610000 
 H        3.1856860000    -2.4062660000    -0.1068320000 
*
