! RI PBE def2-SVP def2-SVP/J NBO PAL2
% maxcore 2000
% output
    # printlevel mini
    print[ P_Basis ] 0
    print[ P_SCFInfo ] 1
    print[ P_SCFIterInfo ] 1
    print[ P_OrbEn ] 0
    print[ P_Cartesian ] 0
end
*xyz 0 1
 C        1.0691780000     0.5867730000    -0.0660280000 
 C        2.5039910000     0.2217130000     0.0366730000 
 C        3.0606480000    -0.6810790000     0.8536260000 
 C        2.3385670000    -1.5215690000     1.8670110000 
 O        2.3181530000    -2.8604270000     1.4169240000 
 C        4.4714010000    -0.9007970000     0.7759570000 
 N        5.6087670000    -1.0839010000     0.7469630000 
 H        0.7358570000     0.4814420000    -1.1028410000 
 H        0.9257290000     1.6394770000     0.1984630000 
 H        0.4199950000    -0.0189140000     0.5636950000 
 H        3.1728580000     0.7511410000    -0.6370630000 
 H        1.3222110000    -1.1413660000     2.0100470000 
 H        2.8629610000    -1.4354820000     2.8260320000 
 H        2.3356740000    -3.4454620000     2.1771310000 
*
