! RI PBE def2-SVP def2-SVP/J NBO PAL2
% maxcore 2000
% output
    # printlevel mini
    print[ P_Basis ] 0
    print[ P_SCFInfo ] 1
    print[ P_SCFIterInfo ] 1
    print[ P_OrbEn ] 0
    print[ P_Cartesian ] 0
end
*xyz 0 1
 C        0.8872330000     0.0151700000    -0.1276750000 
 C        2.3697960000     0.0459290000     0.0293310000 
 C        3.0692940000     1.0859050000     0.4869910000 
 C        3.0760060000    -1.1881400000    -0.3630840000 
 O        2.5275200000    -2.1742870000    -0.7861870000 
 C        4.5466530000    -1.1943790000    -0.2213310000 
 N        5.6918520000    -1.2322910000    -0.1233110000 
 H        0.4437720000     0.9604360000     0.1835060000 
 H        0.4545150000    -0.7949080000     0.4642210000 
 H        0.6146000000    -0.1826940000    -1.1670810000 
 H        2.5781720000     2.0057430000     0.7829480000 
 H        4.1491870000     1.0484270000     0.5788700000 
*
