! RI PBE def2-SVP def2-SVP/J NBO PAL2
% maxcore 2000
% output
    # printlevel mini
    print[ P_Basis ] 0
    print[ P_SCFInfo ] 1
    print[ P_SCFIterInfo ] 1
    print[ P_OrbEn ] 0
    print[ P_Cartesian ] 0
end
*xyz 0 1
 C        3.8153180000     2.1456520000     0.2198300000 
 C        3.3715790000     0.7406950000     0.4713930000 
 C        2.8518180000     0.3467150000     1.6292930000 
 C        3.5548680000    -0.2433330000    -0.6529470000 
 O        3.1781430000     0.3386050000    -1.8766480000 
 C        5.0065790000    -0.7234830000    -0.7519540000 
 N        5.1550040000    -1.5025160000    -1.9738960000 
 H        3.6680640000     2.7662170000     1.1044530000 
 H        3.2550670000     2.5725830000    -0.6148700000 
 H        4.8720750000     2.1921690000    -0.0612710000 
 H        2.7530720000     1.0270900000     2.4679610000 
 H        2.5029150000    -0.6703770000     1.7754900000 
 H        2.9249360000    -1.1237920000    -0.4432280000 
 H        3.6717490000    -0.1652480000    -2.5436050000 
 H        5.2735650000    -1.2624750000     0.1655180000 
 H        5.6612820000     0.1483890000    -0.8303900000 
 H        4.8093070000    -2.4464950000    -1.8545340000 
 H        6.1199280000    -1.5630770000    -2.2666050000 
*
