! RI PBE def2-SVP def2-SVP/J NBO PAL2
% maxcore 2000
% output
    # printlevel mini
    print[ P_Basis ] 0
    print[ P_SCFInfo ] 1
    print[ P_SCFIterInfo ] 1
    print[ P_OrbEn ] 0
    print[ P_Cartesian ] 0
end
*xyz 0 1
 C        1.0192250000     0.1579410000    -0.2252650000 
 C        2.4767990000     0.0291340000     0.0802430000 
 C        3.0312010000     0.4329360000     1.2169350000 
 C        3.2871170000    -0.5932640000    -1.0370180000 
 O        3.2574540000     0.1852560000    -2.2145590000 
 C        4.6728860000    -0.8878730000    -0.6420450000 
 N        5.7651340000    -1.0985430000    -0.3532350000 
 H        0.4962190000     0.6857160000     0.5720110000 
 H        0.5609540000    -0.8299040000    -0.3421540000 
 H        0.8611080000     0.6922650000    -1.1651090000 
 H        2.4303140000     0.8903730000     1.9947880000 
 H        4.0904690000     0.3125940000     1.4138620000 
 H        2.8267270000    -1.5470230000    -1.3194440000 
 H        3.6384830000     1.0462110000    -2.0109190000 
*
