! RI PBE def2-SVP def2-SVP/J NBO PAL2
% maxcore 2000
% output
    # printlevel mini
    print[ P_Basis ] 0
    print[ P_SCFInfo ] 1
    print[ P_SCFIterInfo ] 1
    print[ P_OrbEn ] 0
    print[ P_Cartesian ] 0
end
*xyz 0 1
 C        0.8983760000    -0.0761840000    -0.0510760000 
 C        2.3820180000     0.1215200000    -0.0408460000 
 C        3.0590690000     1.2509730000     0.2284350000 
 C        2.4499760000     2.5389760000     0.5730350000 
 O        3.1097250000     3.5206130000     0.8061720000 
 C        3.1416930000    -1.0492910000    -0.3595830000 
 N        3.7207950000    -2.0104590000    -0.6200010000 
 H        0.3534130000     0.8314550000     0.1940820000 
 H        0.6237040000    -0.8552610000     0.6645880000 
 H        0.5778340000    -0.4233330000    -1.0366240000 
 H        4.1434780000     1.2499110000     0.1988860000 
 H        1.3455300000     2.5833810000     0.6133320000 
*
