! RI PBE def2-SVP def2-SVP/J NBO PAL2
% maxcore 2000
% output
    # printlevel mini
    print[ P_Basis ] 0
    print[ P_SCFInfo ] 1
    print[ P_SCFIterInfo ] 1
    print[ P_OrbEn ] 0
    print[ P_Cartesian ] 0
end
*xyz 0 1
 C        0.9203370000    -0.0659510000     0.0518420000 
 C        2.4550640000    -0.0549590000     0.0979740000 
 C        3.0338210000    -1.0753770000    -0.8926340000 
 C        2.9233570000     1.3315850000    -0.3360680000 
 O        3.5751900000     2.0908820000     0.3122000000 
 C        2.9166480000    -0.3536190000     1.4504540000 
 N        3.2611080000    -0.6257190000     2.5122590000 
 H        0.5799560000     0.2027810000    -0.9510290000 
 H        0.4981380000     0.6397580000     0.7682540000 
 H        0.5471190000    -1.0639480000     0.2851580000 
 H        2.7224440000    -0.8203020000    -1.9084330000 
 H        2.6615510000    -2.0739010000    -0.6600620000 
 H        4.1235840000    -1.0920140000    -0.8518030000 
 H        2.5837650000     1.5827920000    -1.3658320000 
*
