! RI PBE def2-SVP def2-SVP/J NBO PAL2
% maxcore 2000
% output
    # printlevel mini
    print[ P_Basis ] 0
    print[ P_SCFInfo ] 1
    print[ P_SCFIterInfo ] 1
    print[ P_OrbEn ] 0
    print[ P_Cartesian ] 0
end
*xyz 0 1
 C        0.9071680000    -0.0498000000    -0.1141090000 
 C        2.4283810000    -0.0509600000     0.0231730000 
 C        3.0835130000    -1.0064610000    -0.9721920000 
 C        2.9675630000     1.3419240000    -0.1622790000 
 O        3.5700860000     1.9764840000     0.6582290000 
 C        2.7078870000     1.9441570000    -1.4921770000 
 N        2.5013010000     2.4023140000    -2.5267690000 
 H        0.5251700000    -1.0584980000     0.0547260000 
 H        0.6010570000     0.2606670000    -1.1163100000 
 H        0.4376260000     0.6172010000     0.6116000000 
 H        2.7086120000    -0.3279750000     1.0428200000 
 H        2.8475950000    -0.7270310000    -2.0021270000 
 H        2.7093480000    -2.0185750000    -0.8062760000 
 H        4.1693930000    -1.0230460000    -0.8599080000 
*
