! RI PBE def2-SVP def2-SVP/J NBO PAL2
% maxcore 2000
% output
    # printlevel mini
    print[ P_Basis ] 0
    print[ P_SCFInfo ] 1
    print[ P_SCFIterInfo ] 1
    print[ P_OrbEn ] 0
    print[ P_Cartesian ] 0
end
*xyz 0 1
 C        0.9622320000    -0.3023670000     0.1270000000 
 C        2.4468480000    -0.0340030000    -0.0783020000 
 C        2.8236560000    -0.1978960000    -1.5448530000 
 C        2.8166790000     1.3429710000     0.4604250000 
 O        2.4510440000     1.4153080000     1.8179640000 
 C        4.3012670000     1.6737510000     0.3386390000 
 N        4.5718290000     2.8978220000     1.0869220000 
 H        0.7044850000    -1.3156030000    -0.1919370000 
 H        0.3594450000     0.3954250000    -0.4639560000 
 H        0.6828750000    -0.1859020000     1.1740800000 
 H        3.0123900000    -0.7625230000     0.5174440000 
 H        2.3528760000     0.5773690000    -2.1585160000 
 H        2.4772360000    -1.1641840000    -1.9190490000 
 H        3.9017970000    -0.1501100000    -1.7116170000 
 H        2.2485990000     2.0967000000    -0.1190810000 
 H        3.0063720000     2.1242860000     2.1794440000 
 H        4.5974530000     1.7320750000    -0.7151340000 
 H        4.8716400000     0.8630370000     0.8033100000 
 H        4.3044120000     3.7171050000     0.5553290000 
 H        5.5528640000     2.9881390000     1.3109780000 
*
