! RI PBE def2-SVP def2-SVP/J NBO PAL2
% maxcore 2000
% output
    # printlevel mini
    print[ P_Basis ] 0
    print[ P_SCFInfo ] 1
    print[ P_SCFIterInfo ] 1
    print[ P_OrbEn ] 0
    print[ P_Cartesian ] 0
end
*xyz 0 1
 C        0.8622170000    -0.1189130000     0.0240380000 
 C        2.3787300000    -0.0220690000    -0.0480660000 
 C        2.8389100000     0.6355280000    -1.3399090000 
 C        2.9383950000     0.6879390000     1.1936380000 
 O        4.3405120000     0.6499720000     1.2836530000 
 C        2.4448540000     2.0742880000     1.2788170000 
 N        2.0760770000     3.1627780000     1.3136680000 
 H        0.4777710000    -0.7052290000    -0.8127870000 
 H        0.3998340000     0.8708110000    -0.0229570000 
 H        0.5331720000    -0.6016350000     0.9481350000 
 H        2.8024590000    -1.0312350000     0.0038150000 
 H        2.4737630000     1.6642600000    -1.4111130000 
 H        2.4538310000     0.0868270000    -2.2017770000 
 H        3.9282550000     0.6468400000    -1.4324200000 
 H        2.5749120000     0.1642260000     2.0832470000 
 H        4.7118960000     1.1875360000     0.5776280000 
*
