! RI PBE def2-SVP def2-SVP/J NBO PAL2
% maxcore 2000
% output
    # printlevel mini
    print[ P_Basis ] 0
    print[ P_SCFInfo ] 1
    print[ P_SCFIterInfo ] 1
    print[ P_OrbEn ] 0
    print[ P_Cartesian ] 0
end
*xyz 0 1
 C        0.8759840000    -0.0429850000    -0.0133000000 
 C        2.3983170000     0.0913130000     0.0371610000 
 C        2.8510510000     1.4191850000     0.6441130000 
 C        2.6515140000     2.5952520000    -0.2670740000 
 O        2.2841820000     2.5222160000    -1.4069000000 
 C        2.9878110000    -1.0174310000     0.7803010000 
 N        3.4455060000    -1.8846040000     1.3811640000 
 H        0.4580710000     0.7665210000    -0.6114270000 
 H        0.4515560000    -0.0012550000     0.9919130000 
 H        0.5861240000    -0.9919760000    -0.4651630000 
 H        2.7870680000     0.0410590000    -0.9855960000 
 H        3.9191430000     1.3990070000     0.8955990000 
 H        2.3373130000     1.6196710000     1.5917640000 
 H        2.8937690000     3.5785370000     0.1888460000 
*
