! RI PBE def2-SVP def2-SVP/J NBO PAL2
% maxcore 2000
% output
    # printlevel mini
    print[ P_Basis ] 0
    print[ P_SCFInfo ] 1
    print[ P_SCFIterInfo ] 1
    print[ P_OrbEn ] 0
    print[ P_Cartesian ] 0
end
*xyz 0 1
 C        1.0169740000    -0.0609160000    -0.0773600000 
 C        2.4591400000    -0.0281140000    -0.1078630000 
 C        3.6635430000     0.0073840000    -0.1378850000 
 C        5.0931610000     0.0258810000    -0.1524940000 
 O        5.7762340000     0.7480470000    -0.8322110000 
 C        5.7156790000    -0.9444300000     0.7638340000 
 N        6.2083450000    -1.7000560000     1.4774410000 
 H        0.5944180000     0.5100070000    -0.9067000000 
 H        0.6520920000     0.3681480000     0.8596340000 
 H        0.6565140000    -1.0906420000    -0.1383070000 
*
