! RI PBE def2-SVP def2-SVP/J NBO PAL2
% maxcore 2000
% output
    # printlevel mini
    print[ P_Basis ] 0
    print[ P_SCFInfo ] 1
    print[ P_SCFIterInfo ] 1
    print[ P_OrbEn ] 0
    print[ P_Cartesian ] 0
end
*xyz 0 1
 C        0.9479820000    -0.0669910000    -0.0525570000 
 C        2.3982410000    -0.0537410000    -0.0583750000 
 C        3.5999130000    -0.0446990000    -0.0840130000 
 C        5.0566420000    -0.0411400000    -0.0754110000 
 O        5.5610200000     0.3311700000    -1.3358190000 
 C        5.6008530000     0.9106000000     0.9951370000 
 N        7.0484820000     0.9733250000     0.8584200000 
 H        0.5600660000    -0.1505870000    -1.0708380000 
 H        0.5442160000     0.8485490000     0.3867430000 
 H        0.5654660000    -0.9145780000     0.5217010000 
 H        5.3956700000    -1.0620140000     0.1750210000 
 H        6.4638800000     0.6304310000    -1.1421420000 
 H        5.2490010000     0.5907460000     1.9835820000 
 H        5.1914510000     1.9037940000     0.7973880000 
 H        7.5005780000     0.1936880000     1.3189440000 
 H        7.4252500000     1.8238380000     1.2517180000 
*
