! RI PBE def2-SVP def2-SVP/J NBO PAL2
% maxcore 2000
% output
    # printlevel mini
    print[ P_Basis ] 0
    print[ P_SCFInfo ] 1
    print[ P_SCFIterInfo ] 1
    print[ P_OrbEn ] 0
    print[ P_Cartesian ] 0
end
*xyz 0 1
 C        0.9062450000     0.0137130000     0.0438720000 
 C        2.3543160000     0.0343820000     0.0553890000 
 C        3.5554420000     0.0498330000     0.0607530000 
 C        5.0156710000     0.0796940000     0.0893790000 
 O        5.5460050000     1.0941140000     0.9059810000 
 C        5.5398060000    -1.2481100000     0.4758560000 
 N        5.9612950000    -2.2701230000     0.7886400000 
 H        0.5040710000     0.8601430000     0.6055180000 
 H        0.5272010000    -0.9057350000     0.4956870000 
 H        0.5258420000     0.0747790000    -0.9782960000 
 H        5.3939960000     0.2887140000    -0.9173990000 
 H        5.1391110000     1.0235070000     1.7759180000 
*
