! RI PBE def2-SVP def2-SVP/J NBO PAL2
% maxcore 2000
% output
    # printlevel mini
    print[ P_Basis ] 0
    print[ P_SCFInfo ] 1
    print[ P_SCFIterInfo ] 1
    print[ P_OrbEn ] 0
    print[ P_Cartesian ] 0
end
*xyz 0 1
 C        1.0635690000    -0.2984790000     0.0074380000 
 C        2.5651430000    -0.0845800000    -0.0390920000 
 C        2.9616280000     1.3899140000     0.0174450000 
 C        4.4692870000     1.6083180000     0.1559430000 
 O        5.2288220000     0.7397450000     0.4631840000 
 C        2.4675400000     2.1581300000    -1.1176600000 
 N        2.1027940000     2.7584140000    -2.0279900000 
 H        0.8281960000    -1.3634350000    -0.0298800000 
 H        0.5626750000     0.1830770000    -0.8357220000 
 H        0.6323020000     0.1041690000     0.9280930000 
 H        2.9886150000    -0.5226290000    -0.9465410000 
 H        3.0572490000    -0.5807190000     0.7997060000 
 H        2.5277440000     1.8528790000     0.9182540000 
 H        4.8095250000     2.6473150000    -0.0257660000 
*
