! RI PBE def2-SVP def2-SVP/J NBO PAL2
% maxcore 2000
% output
    # printlevel mini
    print[ P_Basis ] 0
    print[ P_SCFInfo ] 1
    print[ P_SCFIterInfo ] 1
    print[ P_OrbEn ] 0
    print[ P_Cartesian ] 0
end
*xyz 0 1
 C        2.9636300000    -1.8576460000    -0.0417300000 
 C        2.5164950000    -0.4087100000    -0.1385880000 
 C        3.0915680000     0.4003910000    -1.3146130000 
 C        2.5064670000     0.0653060000    -2.6850000000 
 O        2.8282840000    -1.2549700000    -3.0467630000 
 C        4.5508080000     0.3407790000    -1.3450660000 
 N        5.7000400000     0.3096510000    -1.3587960000 
 H        2.5390410000    -2.3178600000     0.8531290000 
 H        4.0514390000    -1.9266870000     0.0321120000 
 H        2.6516690000    -2.4350990000    -0.9109670000 
 H        2.7877010000     0.1149260000     0.7828820000 
 H        1.4257790000    -0.3511650000    -0.2167880000 
 H        2.8352130000     1.4529070000    -1.1401870000 
 H        2.8983800000     0.7833260000    -3.4151280000 
 H        1.4179530000     0.2053890000    -2.6223110000 
 H        2.7482220000    -1.3467800000    -3.9980250000 
*
