! RI PBE def2-SVP def2-SVP/J NBO PAL2
% maxcore 2000
% output
    # printlevel mini
    print[ P_Basis ] 0
    print[ P_SCFInfo ] 1
    print[ P_SCFIterInfo ] 1
    print[ P_OrbEn ] 0
    print[ P_Cartesian ] 0
end
*xyz 0 1
 C        0.9588960000     0.3086650000    -0.0205970000 
 C        2.4540640000     0.0335060000    -0.0300530000 
 C        2.7922460000    -1.4420070000    -0.1521810000 
 C        2.5161670000    -2.2415850000     1.0858950000 
 O        2.1885660000    -1.8022600000     2.1529420000 
 C        2.7051840000    -3.7002130000     0.9244790000 
 N        2.8559450000    -4.8309570000     0.7779030000 
 H        0.7619770000     1.3803040000     0.0462880000 
 H        0.4721420000    -0.1707290000     0.8304860000 
 H        0.4848880000    -0.0583320000    -0.9353710000 
 H        2.9108720000     0.4278130000     0.8815750000 
 H        2.9213900000     0.5583240000    -0.8677820000 
 H        3.8562860000    -1.5978040000    -0.3774270000 
 H        2.2577980000    -1.9184160000    -0.9838560000 
*
