! RI PBE def2-SVP def2-SVP/J NBO PAL2
% maxcore 2000
% output
    # printlevel mini
    print[ P_Basis ] 0
    print[ P_SCFInfo ] 1
    print[ P_SCFIterInfo ] 1
    print[ P_OrbEn ] 0
    print[ P_Cartesian ] 0
end
*xyz 0 1
 C        1.1664290000     0.1250990000    -0.4483990000 
 C        2.6776090000     0.1509650000    -0.2927600000 
 C        3.1441530000    -0.5991770000     0.9446710000 
 C        4.6552340000    -0.5727420000     1.1536480000 
 O        5.0537340000    -1.1440670000     2.3753400000 
 C        5.3522850000    -1.2126710000     0.0236220000 
 N        5.8758230000    -1.7446840000    -0.8509110000 
 H        0.8518250000     0.6723850000    -1.3391160000 
 H        0.6708660000     0.5791690000     0.4139620000 
 H        0.7971920000    -0.8997120000    -0.5413760000 
 H        3.0237690000     1.1893480000    -0.2364830000 
 H        3.1471980000    -0.2817420000    -1.1819340000 
 H        2.8142400000    -1.6438590000     0.8954700000 
 H        2.7002380000    -0.1641690000     1.8452970000 
 H        4.9947630000     0.4671550000     1.1937240000 
 H        4.7971420000    -2.0717000000     2.3801450000 
*
