! RI PBE def2-SVP def2-SVP/J NBO PAL2
% maxcore 2000
% output
    # printlevel mini
    print[ P_Basis ] 0
    print[ P_SCFInfo ] 1
    print[ P_SCFIterInfo ] 1
    print[ P_OrbEn ] 0
    print[ P_Cartesian ] 0
end
*xyz 0 1
 C        1.4761460000     0.8921620000    -0.5594340000 
 C        2.2655260000     0.0522540000     0.0950400000 
 C        2.9659090000    -1.1126200000    -0.5246440000 
 C        4.4717160000    -1.0752230000    -0.3550570000 
 O        4.7532220000    -1.2018630000     1.0320110000 
 N        6.1054270000    -1.1291800000     1.2415950000 
 C        6.4066470000    -1.2479610000     2.4640230000 
 H        0.9921600000     1.7230270000    -0.0592360000 
 H        1.2815990000     0.7776130000    -1.6219030000 
 H        2.4369980000     0.2000260000     1.1585030000 
 H        2.7442480000    -1.1551100000    -1.5950490000 
 H        2.5978250000    -2.0460770000    -0.0820290000 
 H        4.8874900000    -0.1330380000    -0.7261320000 
 H        4.9428560000    -1.9018140000    -0.8973100000 
 H        7.4603790000    -1.2004110000     2.7097010000 
 H        5.6603510000    -1.3908650000     3.2444110000 
*
