! RI PBE def2-SVP def2-SVP/J NBO PAL2
% maxcore 2000
% output
    # printlevel mini
    print[ P_Basis ] 0
    print[ P_SCFInfo ] 1
    print[ P_SCFIterInfo ] 1
    print[ P_OrbEn ] 0
    print[ P_Cartesian ] 0
end
*xyz 0 1
 C        0.5540090000     0.0158360000     0.1106110000 
 C        2.0283320000     0.0305560000     0.3162430000 
 C        2.9082210000     0.6083790000    -0.4918150000 
 C        4.3783190000     0.5641540000    -0.2810640000 
 O        4.8560420000     1.9054690000    -0.2030620000 
 N        6.2251060000     1.9136320000    -0.2654920000 
 C        6.7015150000     3.0789000000    -0.1444470000 
 H        0.1792070000    -1.0089530000     0.0232770000 
 H        0.2695060000     0.5616640000    -0.7906850000 
 H        0.0361610000     0.4656890000     0.9634840000 
 H        2.3995100000    -0.4825990000     1.2027600000 
 H        2.5651630000     1.1374300000    -1.3788990000 
 H        4.8845000000     0.0678690000    -1.1168070000 
 H        4.6277050000     0.0258950000     0.6397940000 
 H        7.7799820000     3.1683340000    -0.1905990000 
 H        6.0765220000     3.9594640000    -0.0019110000 
*
