! RI PBE def2-SVP def2-SVP/J NBO PAL2
% maxcore 2000
% output
    # printlevel mini
    print[ P_Basis ] 0
    print[ P_SCFInfo ] 1
    print[ P_SCFIterInfo ] 1
    print[ P_OrbEn ] 0
    print[ P_Cartesian ] 0
end
*xyz 0 1
 C        0.1720610000     0.0368770000    -0.8015070000 
 C        1.5854310000    -0.2910010000    -0.4357400000 
 C        2.5149310000    -0.5898370000    -1.3350680000 
 C        1.8522000000    -0.2505150000     1.0337100000 
 O        3.2006580000    -0.5686770000     1.3116540000 
 N        3.4110740000    -0.5228730000     2.6657380000 
 C        4.6063090000    -0.8003730000     2.9712750000 
 H       -0.5297380000    -0.6611180000    -0.3331100000 
 H        0.0261900000    -0.0054310000    -1.8809670000 
 H       -0.1030240000     1.0394330000    -0.4574690000 
 H        2.2754910000    -0.6071160000    -2.3924750000 
 H        3.5307190000    -0.8233640000    -1.0447620000 
 H        1.1927830000    -0.9590180000     1.5525440000 
 H        1.6213670000     0.7482570000     1.4276340000 
 H        4.8513860000    -0.7850730000     4.0260670000 
 H        5.3641720000    -1.0445630000     2.2282760000 
*
