! RI PBE def2-SVP def2-SVP/J NBO PAL2
% maxcore 2000
% output
    # printlevel mini
    print[ P_Basis ] 0
    print[ P_SCFInfo ] 1
    print[ P_SCFIterInfo ] 1
    print[ P_OrbEn ] 0
    print[ P_Cartesian ] 0
end
*xyz 0 1
 C        0.9817500000    -0.1467080000    -0.0395580000 
 C        2.4908750000    -0.2969760000    -0.0742790000 
 C        2.9380480000    -1.5218590000     0.7056540000 
 C        3.0063360000    -0.3256170000    -1.5032910000 
 O        2.9535050000     0.9027790000     0.5897470000 
 N        4.3164690000     0.9510980000     0.6580270000 
 C        4.7315710000     1.9963990000     1.2369650000 
 H        0.5089560000    -1.0055770000    -0.5192820000 
 H        0.6742640000     0.7583480000    -0.5670290000 
 H        0.6261050000    -0.0852740000     0.9908020000 
 H        2.5418220000    -2.4282660000     0.2423380000 
 H        2.5741380000    -1.4727340000     1.7344320000 
 H        4.0263930000    -1.5894650000     0.7241360000 
 H        2.6119920000    -1.1987110000    -2.0281030000 
 H        4.0957050000    -0.3752950000    -1.5179580000 
 H        2.6908570000     0.5716140000    -2.0405780000 
 H        5.8051030000     2.1068570000     1.3300480000 
 H        4.0595010000     2.7588080000     1.6291280000 
*
