! RI PBE def2-SVP def2-SVP/J NBO PAL2
% maxcore 2000
% output
    # printlevel mini
    print[ P_Basis ] 0
    print[ P_SCFInfo ] 1
    print[ P_SCFIterInfo ] 1
    print[ P_OrbEn ] 0
    print[ P_Cartesian ] 0
end
*xyz 0 1
 C        0.8309100000     0.0280660000     0.6300920000 
 C        2.3073360000     0.0871810000     0.2630160000 
 C        2.9145790000     1.4356380000     0.6179710000 
 C        3.0366380000    -1.0635000000     0.9367920000 
 O        4.3834420000    -1.1922820000     0.4988860000 
 N        5.2612240000    -0.6971250000     1.4250450000 
 C        6.4639760000    -0.7821720000     1.0407240000 
 H        0.2727600000     0.8207840000     0.1271370000 
 H        0.6905620000     0.1595660000     1.7077230000 
 H        0.3815890000    -0.9281130000     0.3485090000 
 H        2.4017620000    -0.0631960000    -0.8197450000 
 H        3.9701740000     1.4852080000     0.3467800000 
 H        2.3931610000     2.2432760000     0.0978350000 
 H        2.8387710000     1.6245250000     1.6932520000 
 H        2.5506940000    -2.0118210000     0.6866590000 
 H        3.0332770000    -0.9460900000     2.0244490000 
 H        7.2168750000    -0.4175130000     1.7283380000 
 H        6.7471810000    -1.1983210000     0.0751270000 
*
