! RI PBE def2-SVP def2-SVP/J NBO PAL2
% maxcore 2000
% output
    # printlevel mini
    print[ P_Basis ] 0
    print[ P_SCFInfo ] 1
    print[ P_SCFIterInfo ] 1
    print[ P_OrbEn ] 0
    print[ P_Cartesian ] 0
end
*xyz 0 1
 C        1.0820150000     0.3044470000     0.1262130000 
 C        2.5535250000     0.1229610000    -0.2146320000 
 C        3.0583200000    -1.3122160000    -0.0889280000 
 C        2.4098730000    -2.2561050000    -1.0961050000 
 O        2.9433420000    -3.5478200000    -0.9887710000 
 N        4.5031400000    -1.4523000000    -0.2453920000 
 C        5.2977000000    -1.0353330000     0.8914470000 
 H        0.8003060000     1.3592040000     0.0963250000 
 H        0.8630770000    -0.0675030000     1.1311540000 
 H        0.4310820000    -0.2264640000    -0.5714290000 
 H        3.1531650000     0.7623480000     0.4413590000 
 H        2.7429580000     0.4707260000    -1.2384330000 
 H        2.8208420000    -1.6896980000     0.9142200000 
 H        2.5575940000    -1.8466390000    -2.1111950000 
 H        1.3332510000    -2.3235910000    -0.9256550000 
 H        3.8818940000    -3.3969560000    -0.7962510000 
 H        4.8009920000    -0.9585310000    -1.0797130000 
 H        5.0621030000    -1.6701080000     1.7492200000 
 H        5.1479730000     0.0108390000     1.1971310000 
 H        6.3570680000    -1.1693820000     0.6638470000 
*
