! RI PBE def2-SVP def2-SVP/J NBO PAL2
% maxcore 2000
% output
    # printlevel mini
    print[ P_Basis ] 0
    print[ P_SCFInfo ] 1
    print[ P_SCFIterInfo ] 1
    print[ P_OrbEn ] 0
    print[ P_Cartesian ] 0
end
*xyz 0 1
 C        1.0127460000     0.9514570000    -0.2089150000 
 C        2.4403460000     0.4830900000    -0.4337180000 
 C        3.0272800000    -0.2164160000     0.7828400000 
 C        4.4449940000    -0.6767420000     0.5472000000 
 O        4.8991710000    -1.3131100000     1.7341030000 
 N        6.1863600000    -1.7492880000     1.5670750000 
 C        6.6345460000    -2.3239770000     2.6008420000 
 H        0.6114490000     1.4503160000    -1.0938690000 
 H        0.9562110000     1.6565180000     0.6250040000 
 H        0.3546700000     0.1104010000     0.0262180000 
 H        3.0698440000     1.3399860000    -0.6995850000 
 H        2.4725970000    -0.1950960000    -1.2940950000 
 H        2.4098270000    -1.0811440000     1.0491530000 
 H        3.0088520000     0.4585070000     1.6454310000 
 H        5.1023190000     0.1689120000     0.3151850000 
 H        4.4974820000    -1.3856840000    -0.2868750000 
 H        7.6496350000    -2.6975860000     2.5460380000 
 H        6.0456600000    -2.4464430000     3.5089570000 
*
