! RI PBE def2-SVP def2-SVP/J NBO PAL2
% maxcore 2000
% output
    # printlevel mini
    print[ P_Basis ] 0
    print[ P_SCFInfo ] 1
    print[ P_SCFIterInfo ] 1
    print[ P_OrbEn ] 0
    print[ P_Cartesian ] 0
end
*xyz 0 1
 C        0.9663120000    -0.1382000000     0.1147980000 
 C        2.4159630000     0.1409560000    -0.0362630000 
 C        3.1106570000     0.0353660000    -1.1641220000 
 C        4.5593270000     0.3426530000    -1.1900800000 
 O        5.2028490000     0.7016960000    -0.2207810000 
 N        5.1356380000     0.1897630000    -2.4130300000 
 N        6.4831750000     0.4283680000    -2.6425050000 
 H        0.8013800000    -0.9227570000     0.8602280000 
 H        0.5069280000    -0.4502120000    -0.8245420000 
 H        0.4400240000     0.7487850000     0.4817620000 
 H        2.9658440000     0.4601330000     0.8469750000 
 H        2.6290760000    -0.2781270000    -2.0876060000 
 H        4.6008430000    -0.1074710000    -3.2097720000 
 H        7.0211540000    -0.1609570000    -2.0140710000 
 H        6.6874300000     1.3844940000    -2.3672810000 
*
