! RI PBE def2-SVP def2-SVP/J NBO PAL2
% maxcore 2000
% output
    # printlevel mini
    print[ P_Basis ] 0
    print[ P_SCFInfo ] 1
    print[ P_SCFIterInfo ] 1
    print[ P_OrbEn ] 0
    print[ P_Cartesian ] 0
end
*xyz 0 1
 C        1.1165080000    -0.1319850000    -0.0304140000 
 C        2.5960050000    -0.3074030000     0.0830070000 
 C        3.4470490000     0.9308410000    -0.0504830000 
 C        3.8884990000     1.5128470000     1.2943670000 
 O        4.9259590000     0.7965770000     1.9139630000 
 N        3.0257690000    -1.4839090000     0.3141390000 
 N        4.3802170000    -1.6731070000     0.4968510000 
 H        0.7579200000     0.6124770000     0.6886270000 
 H        0.6076780000    -1.0770590000     0.1533530000 
 H        0.8439710000     0.2340010000    -1.0259030000 
 H        2.8639950000     1.6906620000    -0.5788000000 
 H        4.3408810000     0.7473240000    -0.6595360000 
 H        3.0122510000     1.5963240000     1.9548380000 
 H        4.2703440000     2.5251730000     1.1360340000 
 H        4.7137020000    -0.1468790000     1.8977200000 
 H        4.5883150000    -2.6512360000     0.3623180000 
 H        4.9730400000    -1.1008370000    -0.1001800000 
*
