! RI PBE def2-SVP def2-SVP/J NBO PAL2
% maxcore 2000
% output
    # printlevel mini
    print[ P_Basis ] 0
    print[ P_SCFInfo ] 1
    print[ P_SCFIterInfo ] 1
    print[ P_OrbEn ] 0
    print[ P_Cartesian ] 0
end
*xyz 0 1
 C        0.9987940000    -0.0417390000     0.0887500000 
 C        2.4451150000    -0.0300850000     0.1410850000 
 C        3.6487480000    -0.0309010000     0.1661160000 
 C        5.0992710000    -0.0858130000     0.0986950000 
 O        5.6933080000    -0.6048450000    -0.8230980000 
 N        5.7412400000     0.4907180000     1.1510150000 
 N        5.1502100000     1.1055900000     2.2432680000 
 H        0.5633580000     0.4773890000     0.9454810000 
 H        0.6255950000    -1.0688540000     0.0846110000 
 H        0.6457610000     0.4455680000    -0.8234280000 
 H        6.7482380000     0.4699950000     1.1341120000 
 H        4.5603070000     0.4479170000     2.7388650000 
 H        4.5772540000     1.8838810000     1.9397380000 
*
