! RI PBE def2-SVP def2-SVP/J NBO PAL2
% maxcore 2000
% output
    # printlevel mini
    print[ P_Basis ] 0
    print[ P_SCFInfo ] 1
    print[ P_SCFIterInfo ] 1
    print[ P_OrbEn ] 0
    print[ P_Cartesian ] 0
end
*xyz 0 1
 C        1.5314060000    -0.8975770000     1.2561540000 
 C        2.1485960000     0.1095460000     0.2895800000 
 C        2.9004430000     1.2076660000     0.9765560000 
 C        2.1421170000     2.1881630000     1.8272980000 
 O        2.3534240000     3.5109060000     1.3398340000 
 N        4.1698070000     1.2374320000     0.8539820000 
 N        4.8658030000     2.1952320000     1.5295010000 
 H        0.9793900000    -1.6692190000     0.7145420000 
 H        0.8319080000    -0.4220310000     1.9494790000 
 H        2.3069870000    -1.3878810000     1.8487590000 
 H        1.3574450000     0.5486700000    -0.3307750000 
 H        2.8438800000    -0.3967340000    -0.3825450000 
 H        2.5061950000     2.1030050000     2.8625770000 
 H        1.0738530000     1.9453620000     1.8199240000 
 H        1.9264150000     4.1245700000     1.9431750000 
 H        5.7951210000     2.2685840000     1.1476940000 
 H        4.3980100000     3.0945970000     1.5755740000 
*
