! RI PBE def2-SVP def2-SVP/J NBO PAL2
% maxcore 2000
% output
    # printlevel mini
    print[ P_Basis ] 0
    print[ P_SCFInfo ] 1
    print[ P_SCFIterInfo ] 1
    print[ P_OrbEn ] 0
    print[ P_Cartesian ] 0
end
*xyz 0 1
 C        0.9673530000     0.3276450000    -0.5397910000 
 C        2.4354310000    -0.0153130000    -0.3604320000 
 C        3.0548610000     0.6829690000     0.8421350000 
 C        4.4761840000     0.2324660000     1.0904960000 
 O        4.8098760000    -0.9361940000     1.1004520000 
 N        5.3672860000     1.2321350000     1.3146000000 
 N        6.6946440000     0.9917600000     1.6487960000 
 H        0.5457100000    -0.1836680000    -1.4078430000 
 H        0.8206950000     1.4018570000    -0.6854680000 
 H        0.3829500000     0.0309740000     0.3357890000 
 H        2.9944860000     0.2574850000    -1.2618060000 
 H        2.5655050000    -1.0925440000    -0.2335910000 
 H        2.4826220000     0.4331570000     1.7430870000 
 H        3.0028430000     1.7708410000     0.7254060000 
 H        5.0668270000     2.1884750000     1.3810600000 
 H        7.1495510000     0.5554200000     0.8529640000 
 H        6.7116750000     0.2990440000     2.3916460000 
*
