! RI PBE def2-SVP def2-SVP/J NBO PAL2
% maxcore 2000
% output
    # printlevel mini
    print[ P_Basis ] 0
    print[ P_SCFInfo ] 1
    print[ P_SCFIterInfo ] 1
    print[ P_OrbEn ] 0
    print[ P_Cartesian ] 0
end
*xyz 0 1
 C        1.0604700000     0.1745080000    -0.0801080000 
 C        2.5206630000     0.0205120000    -0.2907850000 
 C        3.2067460000    -1.1089950000    -0.1395930000 
 C        4.6565070000    -1.1457200000    -0.3738850000 
 O        5.3459950000    -0.2061820000    -0.7522810000 
 N        5.2410000000    -2.3567870000    -0.1823180000 
 O        6.6170090000    -2.3613810000    -0.2303770000 
 H        0.8599760000     0.9317380000     0.6845030000 
 H        0.5871610000    -0.7604440000     0.2236120000 
 H        0.5766970000     0.5281430000    -0.9961850000 
 H        3.0829480000     0.9001500000    -0.5969370000 
 H        2.7137130000    -2.0316290000     0.1563340000 
 H        4.8853240000    -3.0085060000     0.4990360000 
 H        6.7900810000    -1.4273980000    -0.4772960000 
*
