! RI PBE def2-SVP def2-SVP/J NBO PAL2
% maxcore 2000
% output
    # printlevel mini
    print[ P_Basis ] 0
    print[ P_SCFInfo ] 1
    print[ P_SCFIterInfo ] 1
    print[ P_OrbEn ] 0
    print[ P_Cartesian ] 0
end
*xyz 0 1
 C        0.9697020000    -0.1189640000     0.1686410000 
 C        2.4418560000    -0.0399230000    -0.0648640000 
 C        3.0003220000     0.4402010000    -1.1738900000 
 C        3.2803190000    -0.6091300000     1.0230470000 
 O        2.9387770000    -1.5504280000     1.7272170000 
 N        4.4989040000    -0.0443730000     1.2076340000 
 O        5.1985720000    -0.5005250000     2.3039850000 
 H        0.6808170000     0.4537440000     1.0544630000 
 H        0.6790050000    -1.1543680000     0.3593230000 
 H        0.4170030000     0.2590730000    -0.6912750000 
 H        2.3909320000     0.8417740000    -1.9758490000 
 H        4.0725010000     0.4167060000    -1.3292330000 
 H        4.6379070000     0.9407480000     1.0501410000 
 H        4.5810940000    -1.1810450000     2.6467500000 
*
