! RI PBE def2-SVP def2-SVP/J NBO PAL2
% maxcore 2000
% output
    # printlevel mini
    print[ P_Basis ] 0
    print[ P_SCFInfo ] 1
    print[ P_SCFIterInfo ] 1
    print[ P_OrbEn ] 0
    print[ P_Cartesian ] 0
end
*xyz 0 1
 C        0.9762250000    -0.1958340000     0.1407000000 
 C        2.4869650000    -0.3231680000    -0.0251390000 
 C        3.0153520000    -1.6006040000     0.6191230000 
 C        2.8312430000    -0.3232180000    -1.4947470000 
 O        2.4402200000    -1.1621530000    -2.2949780000 
 N        3.5840380000     0.7077520000    -1.9329140000 
 O        4.0201110000     0.6318670000    -3.2385240000 
 H        0.7096190000    -0.2155990000     1.1996750000 
 H        0.4739920000    -1.0261580000    -0.3590730000 
 H        0.6033110000     0.7361600000    -0.2891670000 
 H        2.9687640000     0.5435550000     0.4434300000 
 H        2.5741060000    -2.4737720000     0.1352550000 
 H        2.7556350000    -1.6234400000     1.6796140000 
 H        4.1017020000    -1.6784290000     0.5330760000 
 H        4.2322500000     1.1972950000    -1.3386470000 
 H        3.5756560000    -0.1927430000    -3.5275960000 
*
