! RI PBE def2-SVP def2-SVP/J NBO PAL2
% maxcore 2000
% output
    # printlevel mini
    print[ P_Basis ] 0
    print[ P_SCFInfo ] 1
    print[ P_SCFIterInfo ] 1
    print[ P_OrbEn ] 0
    print[ P_Cartesian ] 0
end
*xyz 0 1
 C        1.0786010000    -0.0632340000    -0.1140660000 
 C        2.3446950000     0.7064220000    -0.2852860000 
 C        3.6421500000     0.0785590000     0.1226950000 
 C        4.0572220000     0.4980770000     1.5320950000 
 O        5.2435860000    -0.1382230000     1.9507540000 
 N        2.2355820000     1.8826510000    -0.7595080000 
 O        3.4653320000     2.5246220000    -0.8738740000 
 H        1.0948640000    -0.9669860000    -0.7309840000 
 H        0.2187860000     0.5441380000    -0.3938550000 
 H        0.9635790000    -0.3887900000     0.9245940000 
 H        4.4238640000     0.3778200000    -0.5812210000 
 H        3.5520710000    -1.0102230000     0.0946730000 
 H        3.2912130000     0.2013160000     2.2527400000 
 H        4.1486230000     1.5893660000     1.5754730000 
 H        5.9654070000     0.1801210000     1.4026700000 
 H        3.2225440000     3.3671640000    -1.2660090000 
*
