! RI PBE def2-SVP def2-SVP/J NBO PAL2
% maxcore 2000
% output
    # printlevel mini
    print[ P_Basis ] 0
    print[ P_SCFInfo ] 1
    print[ P_SCFIterInfo ] 1
    print[ P_OrbEn ] 0
    print[ P_Cartesian ] 0
end
*xyz 0 1
 C        0.8999720000    -0.0677190000    -0.0136120000 
 C        2.3454350000    -0.0872810000     0.0344250000 
 C        3.5479420000    -0.0976590000     0.0677260000 
 C        4.9903070000    -0.1238950000     0.0001560000 
 O        5.6117970000    -0.3469390000    -1.0150940000 
 N        5.6434650000     0.0500660000     1.1986700000 
 O        4.9953220000     0.7177300000     2.2232450000 
 H        0.5309330000    -0.6082750000    -0.8881340000 
 H        0.5366930000     0.9615080000    -0.0718500000 
 H        0.4723940000    -0.5250090000     0.8817270000 
 H        6.6120870000     0.3283660000     1.1119410000 
 H        4.7896430000     0.0362170000     2.8722910000 
*
