! RI PBE def2-SVP def2-SVP/J NBO PAL2
% maxcore 2000
% output
    # printlevel mini
    print[ P_Basis ] 0
    print[ P_SCFInfo ] 1
    print[ P_SCFIterInfo ] 1
    print[ P_OrbEn ] 0
    print[ P_Cartesian ] 0
end
*xyz 0 1
 C        1.4271320000    -0.0202210000     0.4186810000 
 C        2.9196270000     0.0162860000     0.1436800000 
 C        3.2494400000    -0.3078270000    -1.3092260000 
 C        4.7164340000    -0.1636240000    -1.5975180000 
 O        5.3744570000     0.8369280000    -1.3495390000 
 N        5.3315490000    -1.2459180000    -2.1242660000 
 O        6.6335970000    -1.0590830000    -2.5377440000 
 H        1.2140350000     0.2137480000     1.4637510000 
 H        1.0048370000    -1.0069090000     0.2079130000 
 H        0.8933640000     0.7070450000    -0.1994670000 
 H        3.4377240000    -0.6951610000     0.7947700000 
 H        3.3277580000     1.0026750000     0.3763590000 
 H        2.7236420000     0.3922940000    -1.9681340000 
 H        2.9052380000    -1.3156240000    -1.5643750000 
 H        4.8421770000    -1.9158220000    -2.6947740000 
 H        6.7824800000    -0.1344760000    -2.2477320000 
*
