! RI PBE def2-SVP def2-SVP/J NBO PAL2
% maxcore 2000
% output
    # printlevel mini
    print[ P_Basis ] 0
    print[ P_SCFInfo ] 1
    print[ P_SCFIterInfo ] 1
    print[ P_OrbEn ] 0
    print[ P_Cartesian ] 0
end
*xyz 0 1
 C        1.0423620000    -0.1603170000     0.0722740000 
 C        2.3687070000    -0.0421770000     0.0661140000 
 C        3.0733880000     0.1153060000    -1.1695600000 
 N        3.6626810000     0.2563710000    -2.1488510000 
 C        3.2126970000    -0.0258430000     1.2955570000 
 C        2.8914820000    -0.8419990000     2.4596390000 
 O        3.9393210000    -1.2094010000     1.5789150000 
 H        0.4716790000    -0.1571180000    -0.8479130000 
 H        0.5009100000    -0.2574020000     1.0050600000 
 H        3.7871430000     0.8882330000     1.4394990000 
 H        2.0208350000    -1.4917290000     2.4369190000 
 H        3.2051740000    -0.5070040000     3.4448580000 
*
