! RI PBE def2-SVP def2-SVP/J NBO PAL2
% maxcore 2000
% output
    # printlevel mini
    print[ P_Basis ] 0
    print[ P_SCFInfo ] 1
    print[ P_SCFIterInfo ] 1
    print[ P_OrbEn ] 0
    print[ P_Cartesian ] 0
end
*xyz 0 1
 C        1.2118010000     0.0948160000    -0.1823560000 
 C        2.6884570000    -0.2553890000    -0.0479050000 
 C        2.8520500000    -1.6409800000     0.5796820000 
 N        3.2976480000    -0.1686030000    -1.3705920000 
 C        3.3303540000     0.7596190000     0.8875980000 
 C        4.5455400000     1.5038900000     0.5723660000 
 O        3.2714650000     2.1242060000     0.5244080000 
 H        0.6976600000    -0.6430220000    -0.8056550000 
 H        1.1034880000     1.0806930000    -0.6367960000 
 H        0.7228230000     0.1077020000     0.7940820000 
 H        2.3840750000    -2.3980010000    -0.0545800000 
 H        2.3910920000    -1.6970050000     1.5698820000 
 H        3.9108050000    -1.8956420000     0.6886930000 
 H        2.6739050000    -0.5518290000    -2.0694500000 
 H        4.1540660000    -0.7084790000    -1.4075110000 
 H        3.1077850000     0.5820430000     1.9409890000 
 H        5.0106550000     1.3620430000    -0.3984240000 
 H        5.1959200000     1.8371390000     1.3782600000 
*
