! RI PBE def2-SVP def2-SVP/J NBO PAL2
% maxcore 2000
% output
    # printlevel mini
    print[ P_Basis ] 0
    print[ P_SCFInfo ] 1
    print[ P_SCFIterInfo ] 1
    print[ P_OrbEn ] 0
    print[ P_Cartesian ] 0
end
*xyz 0 1
 C        0.9914350000    -0.2845770000     0.1887220000 
 C        2.4985100000    -0.0263840000     0.1297510000 
 C        2.9367660000     0.7642890000     1.2749970000 
 N        3.2792470000     1.3973980000     2.1712550000 
 C        3.2649450000    -1.3290390000     0.0153820000 
 C        4.5096400000    -1.6120560000     0.7182820000 
 O        3.2725980000    -2.1666250000     1.1496610000 
 H        0.4358140000     0.6517510000     0.2442950000 
 H        0.7479730000    -0.8885570000     1.0633140000 
 H        0.6751240000    -0.8237350000    -0.7063030000 
 H        2.7287460000     0.5656440000    -0.7646270000 
 H        3.0724410000    -1.8470070000    -0.9243350000 
 H        4.9312740000    -0.8607840000     1.3802890000 
 H        5.2111850000    -2.3230170000     0.2902180000 
*
