! RI PBE def2-SVP def2-SVP/J NBO PAL2
% maxcore 2000
% output
    # printlevel mini
    print[ P_Basis ] 0
    print[ P_SCFInfo ] 1
    print[ P_SCFIterInfo ] 1
    print[ P_OrbEn ] 0
    print[ P_Cartesian ] 0
end
*xyz 0 1
 C        0.7756060000     0.1070340000    -0.2154750000 
 C        2.2971090000     0.1168690000    -0.1990010000 
 C        2.8854000000     0.0897500000    -1.6074930000 
 N        2.5370180000    -1.1446790000    -2.2960880000 
 C        2.8128390000     1.3130480000     0.5500350000 
 C        3.1297590000     1.2675780000     1.9726520000 
 O        4.1608360000     1.2691920000     0.9981430000 
 H        0.4122370000    -0.7257060000    -0.8181530000 
 H        0.3872010000     1.0315710000    -0.6546730000 
 H        0.3663530000     0.0183420000     0.7936380000 
 H        2.6583640000    -0.7743740000     0.3315740000 
 H        3.9683980000     0.2648620000    -1.5353570000 
 H        2.4644130000     0.9246070000    -2.1797420000 
 H        3.0428710000    -1.9243710000    -1.8924610000 
 H        2.8054460000    -1.0969650000    -3.2703860000 
 H        2.5243690000     2.2801560000     0.1331890000 
 H        3.0039060000     0.3309820000     2.5119460000 
 H        3.0586840000     2.1688720000     2.5766440000 
*
