! RI PBE def2-SVP def2-SVP/J NBO PAL2
% maxcore 2000
% output
    # printlevel mini
    print[ P_Basis ] 0
    print[ P_SCFInfo ] 1
    print[ P_SCFIterInfo ] 1
    print[ P_OrbEn ] 0
    print[ P_Cartesian ] 0
end
*xyz 0 1
 C        1.0894940000     1.6790910000     0.5316910000 
 C        2.4513820000     1.0952970000     0.1984010000 
 C        2.4819510000    -0.4164690000     0.3142500000 
 N        3.7902930000    -0.9495740000    -0.0167520000 
 C        3.9118290000    -2.3930410000     0.1072720000 
 C        3.3877870000    -3.0641570000    -1.1522790000 
 O        3.9949750000    -2.5103090000    -2.2907570000 
 H        1.0906980000     2.7670430000     0.4398950000 
 H        0.7900850000     1.4331580000     1.5542420000 
 H        0.3188170000     1.2913260000    -0.1401300000 
 H        3.2079910000     1.5215230000     0.8687590000 
 H        2.7468570000     1.3761610000    -0.8172190000 
 H        1.7473520000    -0.8448480000    -0.3758810000 
 H        2.1626180000    -0.7149140000     1.3289250000 
 H        4.4963970000    -0.4880610000     0.5405460000 
 H        3.3894180000    -2.7919830000     0.9921810000 
 H        4.9737760000    -2.6332330000     0.2085110000 
 H        2.2924900000    -2.9676850000    -1.2058530000 
 H        3.6171170000    -4.1329680000    -1.1269300000 
 H        4.1019730000    -1.5721460000    -2.0736700000 
*
