! RI PBE def2-SVP def2-SVP/J NBO PAL2
% maxcore 2000
% output
    # printlevel mini
    print[ P_Basis ] 0
    print[ P_SCFInfo ] 1
    print[ P_SCFIterInfo ] 1
    print[ P_OrbEn ] 0
    print[ P_Cartesian ] 0
end
*xyz 0 1
 C        0.3246710000    -0.4593160000    -0.1291720000 
 C        1.4604130000    -0.0047150000     0.3800940000 
 C        2.5029860000     0.7213170000    -0.4023690000 
 N        3.7930100000     0.0665670000    -0.2702860000 
 C        4.8664950000     0.7346670000    -0.9640730000 
 C        6.2076330000     0.1783010000    -0.5595320000 
 O        7.1663570000     0.1364510000    -1.2786200000 
 H       -0.4072210000    -0.9737630000     0.4825690000 
 H        0.0820990000    -0.3251850000    -1.1791430000 
 H        1.6879140000    -0.1595100000     1.4323120000 
 H        2.6134920000     1.7377220000    -0.0024790000 
 H        2.1730360000     0.8273320000    -1.4491020000 
 H        3.7132210000    -0.8931710000    -0.5852870000 
 H        4.8742130000     1.7879050000    -0.6483510000 
 H        4.7982240000     0.7356190000    -2.0624980000 
 H        6.2474560000    -0.1884210000     0.4890470000 
*
