! RI PBE def2-SVP def2-SVP/J NBO PAL2
% maxcore 2000
% output
    # printlevel mini
    print[ P_Basis ] 0
    print[ P_SCFInfo ] 1
    print[ P_SCFIterInfo ] 1
    print[ P_OrbEn ] 0
    print[ P_Cartesian ] 0
end
*xyz 0 1
 C        0.8762680000     0.7220060000    -0.0801630000 
 C        2.1051710000    -0.0786950000     0.1861200000 
 C        3.3177910000     0.4612160000     0.2913690000 
 N        4.5019310000    -0.2218340000     0.5375610000 
 C        4.4977010000    -1.6534300000     0.7065000000 
 C        5.6811080000     0.4626210000     0.6210010000 
 O        6.7622860000    -0.0315170000     0.8287640000 
 H        0.3834730000     0.4017030000    -1.0037340000 
 H        1.1043100000     1.7858800000    -0.1743810000 
 H        0.1424530000     0.6063700000     0.7239330000 
 H        1.9808430000    -1.1514670000     0.2958410000 
 H        3.4530620000     1.5337410000     0.1832130000 
 H        3.8695540000    -1.9356180000     1.5556940000 
 H        5.5222100000    -1.9707280000     0.8870570000 
 H        4.1135200000    -2.1426830000    -0.1925920000 
 H        5.5383200000     1.5477360000     0.4710080000 
*
