! RI PBE def2-SVP def2-SVP/J NBO PAL2
% maxcore 2000
% output
    # printlevel mini
    print[ P_Basis ] 0
    print[ P_SCFInfo ] 1
    print[ P_SCFIterInfo ] 1
    print[ P_OrbEn ] 0
    print[ P_Cartesian ] 0
end
*xyz 0 1
 C        0.5977490000     0.0252410000     0.0346630000 
 C        2.0591330000    -0.0062470000     0.3216990000 
 C        2.9057930000     0.9506730000    -0.0476200000 
 N        4.2700510000     0.9396770000     0.2101800000 
 C        5.1180640000     1.9409250000    -0.1833030000 
 C        6.5590070000     1.7208820000     0.2045120000 
 O        4.7354490000     2.9174640000    -0.7896200000 
 H        0.2881530000    -0.8379880000    -0.5635980000 
 H        0.3219080000     0.9288150000    -0.5124900000 
 H        0.0075780000    -0.0031450000     0.9565200000 
 H        2.4385040000    -0.8699680000     0.8661130000 
 H        2.5896350000     1.8336140000    -0.5909460000 
 H        4.6556350000     0.1567140000     0.7114780000 
 H        6.9447770000     0.7994770000    -0.2394110000 
 H        6.6615790000     1.6399220000     1.2897840000 
 H        7.1486740000     2.5629530000    -0.1490600000 
*
