! RI PBE def2-SVP def2-SVP/J NBO PAL2
% maxcore 2000
% output
    # printlevel mini
    print[ P_Basis ] 0
    print[ P_SCFInfo ] 1
    print[ P_SCFIterInfo ] 1
    print[ P_OrbEn ] 0
    print[ P_Cartesian ] 0
end
*xyz 0 1
 C        0.6505000000    -0.3569210000    -0.3864000000 
 C        2.0378150000     0.1567580000    -0.7265640000 
 C        2.0550420000     0.7831080000    -2.1114620000 
 N        2.4409550000     1.1266620000     0.2870020000 
 C        3.8617430000     1.4193270000     0.3570640000 
 C        4.0707270000     2.6131240000     1.2675860000 
 O        3.3283240000     3.7193590000     0.8220750000 
 H        0.3135820000    -1.0851070000    -1.1264720000 
 H       -0.0655020000     0.4692360000    -0.3668440000 
 H        0.6353340000    -0.8453530000     0.5924790000 
 H        2.7305010000    -0.7038910000    -0.7303510000 
 H        1.3511460000     1.6182210000    -2.1542130000 
 H        1.7674520000     0.0470700000    -2.8658960000 
 H        3.0434330000     1.1599080000    -2.3804750000 
 H        2.1303130000     0.7987050000     1.1951320000 
 H        4.2119540000     1.6817710000    -0.6444510000 
 H        4.4658430000     0.5646270000     0.7040460000 
 H        5.1255950000     2.8991270000     1.2818360000 
 H        3.7907420000     2.3418030000     2.2992670000 
 H        2.4934800000     3.3459550000     0.5072200000 
*
