! RI PBE def2-SVP def2-SVP/J NBO PAL2
% maxcore 2000
% output
    # printlevel mini
    print[ P_Basis ] 0
    print[ P_SCFInfo ] 1
    print[ P_SCFIterInfo ] 1
    print[ P_OrbEn ] 0
    print[ P_Cartesian ] 0
end
*xyz 0 1
 C        1.0245720000    -0.1298220000    -0.2030200000 
 C        2.4883860000     0.1062710000     0.1456660000 
 C        2.9653850000     1.4713810000    -0.3329150000 
 N        2.7514310000    -0.0975670000     1.5626080000 
 C        2.1187350000     0.7470620000     2.5459570000 
 C        3.5896390000    -1.0781560000     1.9747640000 
 O        3.8764710000    -1.3336330000     3.1232120000 
 H        0.8849060000    -0.0814670000    -1.2850780000 
 H        0.3782000000     0.6295660000     0.2437870000 
 H        0.6925530000    -1.1108980000     0.1424020000 
 H        3.0833410000    -0.6565690000    -0.3677830000 
 H        2.3786330000     2.2795910000     0.1104970000 
 H        2.8575070000     1.5468590000    -1.4170610000 
 H        4.0157200000     1.6302640000    -0.0806700000 
 H        1.0296140000     0.6636730000     2.5008690000 
 H        2.3955920000     1.7955230000     2.4073510000 
 H        2.4575360000     0.4190780000     3.5270470000 
 H        4.0046690000    -1.6502550000     1.1231550000 
*
