! RI PBE def2-SVP def2-SVP/J NBO PAL2
% maxcore 2000
% output
    # printlevel mini
    print[ P_Basis ] 0
    print[ P_SCFInfo ] 1
    print[ P_SCFIterInfo ] 1
    print[ P_OrbEn ] 0
    print[ P_Cartesian ] 0
end
*xyz 0 1
 C        0.8323050000     0.2566960000    -0.2117010000 
 C        2.3360870000     0.1582090000    -0.0035950000 
 C        2.9839420000     1.5288560000     0.1224980000 
 N        2.6436950000    -0.6646480000     1.1497740000 
 C        3.3383780000    -1.8292340000     1.0798600000 
 C        3.5402280000    -2.5190380000     2.4098990000 
 O        3.7662220000    -2.2851000000     0.0375640000 
 H        0.6039240000     0.8453150000    -1.1031900000 
 H        0.3495790000     0.7458660000     0.6408100000 
 H        0.3913770000    -0.7343670000    -0.3322310000 
 H        2.7815000000    -0.3738130000    -0.8471100000 
 H        2.5907060000     2.0702070000     0.9893300000 
 H        2.7822390000     2.1340840000    -0.7642930000 
 H        4.0654490000     1.4380210000     0.2376410000 
 H        2.3229610000    -0.3556160000     2.0524380000 
 H        4.0912950000    -1.8766960000     3.1014370000 
 H        4.1026300000    -3.4351150000     2.2469510000 
 H        2.5798720000    -2.7635250000     2.8707980000 
*
