! RI PBE def2-SVP def2-SVP/J NBO PAL2
% maxcore 2000
% output
    # printlevel mini
    print[ P_Basis ] 0
    print[ P_SCFInfo ] 1
    print[ P_SCFIterInfo ] 1
    print[ P_OrbEn ] 0
    print[ P_Cartesian ] 0
end
*xyz 0 1
 C        0.9192850000    -0.1083390000    -0.0358010000 
 C        2.4162800000     0.1405610000    -0.0534110000 
 C        2.7182930000     1.6220940000     0.0996850000 
 N        3.0263500000    -0.6258570000     1.0294520000 
 C        4.4558520000    -0.8004610000     0.9387350000 
 C        5.0153910000    -1.3536120000     2.2232900000 
 O        5.9496330000    -2.1032230000     2.2882970000 
 H        0.4235750000     0.4515790000    -0.8308530000 
 H        0.4949350000     0.2033110000     0.9222670000 
 H        0.6905140000    -1.1680150000    -0.1827520000 
 H        2.8073910000    -0.1903670000    -1.0322750000 
 H        2.3231880000     1.9893490000     1.0500830000 
 H        2.2581360000     2.1889130000    -0.7128440000 
 H        3.7898220000     1.8315520000     0.0731440000 
 H        2.5799280000    -1.5337000000     1.0789820000 
 H        4.9258980000     0.1844840000     0.8193850000 
 H        4.8044010000    -1.4222310000     0.1002950000 
 H        4.4899260000    -0.9967490000     3.1354320000 
*
