! RI PBE def2-SVP def2-SVP/J NBO PAL2
% maxcore 2000
% output
    # printlevel mini
    print[ P_Basis ] 0
    print[ P_SCFInfo ] 1
    print[ P_SCFIterInfo ] 1
    print[ P_OrbEn ] 0
    print[ P_Cartesian ] 0
end
*xyz 0 1
 C        1.1347590000     0.0990630000     0.0212870000 
 C        2.6140210000    -0.0488920000     0.1894660000 
 C        3.3515940000    -0.7150410000    -0.9466520000 
 N        4.1682510000     0.2559010000    -1.6870010000 
 C        3.2602960000     0.4132350000     1.2607670000 
 C        4.7477320000     0.3274400000     1.4643370000 
 O        5.4735940000     1.2398780000     0.6709630000 
 H        0.8902430000     0.6507200000    -0.8939350000 
 H        0.6853770000     0.6253280000     0.8643830000 
 H        0.6508270000    -0.8796400000    -0.0688520000 
 H        2.6297200000    -1.2359170000    -1.5896200000 
 H        4.0339140000    -1.4752380000    -0.5534410000 
 H        3.5801890000     0.9797770000    -2.0841530000 
 H        4.6464510000    -0.1967910000    -2.4574310000 
 H        2.6828590000     0.9261430000     2.0266500000 
 H        5.0859930000    -0.7051660000     1.2791630000 
 H        4.9906630000     0.5549360000     2.5044590000 
 H        5.2060060000     1.0578460000    -0.2500800000 
*
