! RI PBE def2-SVP def2-SVP/J NBO PAL2
% maxcore 2000
% output
    # printlevel mini
    print[ P_Basis ] 0
    print[ P_SCFInfo ] 1
    print[ P_SCFIterInfo ] 1
    print[ P_OrbEn ] 0
    print[ P_Cartesian ] 0
end
*xyz 0 1
 C        1.8446070000     1.0462170000    -0.8947190000 
 C        2.4634780000    -0.0835890000    -0.0752730000 
 C        2.8980620000    -1.2469420000    -0.9178920000 
 N        1.8750510000    -1.9592810000    -1.4543020000 
 C        4.2194150000    -1.4857110000    -1.1398120000 
 C        4.7463020000    -2.5638140000    -1.9303390000 
 O        5.9237770000    -2.7685170000    -2.1398620000 
 H        1.5413690000     1.8679720000    -0.2431220000 
 H        0.9633490000     0.7109440000    -1.4451630000 
 H        2.5625230000     1.4336260000    -1.6201520000 
 H        1.7408010000    -0.4372780000     0.6704620000 
 H        3.3284010000     0.2863600000     0.4760600000 
 H        0.9538430000    -1.8532910000    -1.0708180000 
 H        2.0516580000    -2.8030720000    -1.9679030000 
 H        4.9443340000    -0.8188880000    -0.6894520000 
 H        3.9966400000    -3.2622260000    -2.3737140000 
*
