! RI PBE def2-SVP def2-SVP/J NBO PAL2
% maxcore 2000
% output
    # printlevel mini
    print[ P_Basis ] 0
    print[ P_SCFInfo ] 1
    print[ P_SCFIterInfo ] 1
    print[ P_OrbEn ] 0
    print[ P_Cartesian ] 0
end
*xyz 0 1
 C        0.8448670000    -0.0512570000     0.2059900000 
 C        2.3641600000    -0.0802670000     0.1951080000 
 C        3.0033150000     1.2615870000    -0.1483370000 
 N        2.6589430000     2.3477940000     0.7690060000 
 C        4.5348140000     1.2018840000    -0.2098020000 
 C        5.0731700000     0.2936210000    -1.2917940000 
 O        5.0388290000     2.4956210000    -0.4420720000 
 H        0.4333050000    -1.0387430000     0.4252060000 
 H        0.4502800000     0.2622800000    -0.7650730000 
 H        0.4557820000     0.6366110000     0.9611220000 
 H        2.7004800000    -0.8309030000    -0.5257900000 
 H        2.7379480000    -0.4072790000     1.1742550000 
 H        2.6603800000     1.5766040000    -1.1425160000 
 H        2.7379890000     2.0421120000     1.7331210000 
 H        1.7114710000     2.6703530000     0.6295060000 
 H        4.8900870000     0.8342270000     0.7712140000 
 H        4.6631590000     0.5755720000    -2.2652920000 
 H        4.8402870000    -0.7546340000    -1.0981370000 
 H        6.1584820000     0.3959520000    -1.3415550000 
 H        4.4307610000     3.0799570000     0.0375720000 
*
