! RI PBE def2-SVP def2-SVP/J NBO PAL2
% maxcore 2000
% output
    # printlevel mini
    print[ P_Basis ] 0
    print[ P_SCFInfo ] 1
    print[ P_SCFIterInfo ] 1
    print[ P_OrbEn ] 0
    print[ P_Cartesian ] 0
end
*xyz 0 1
 C        1.2749760000    -0.2294710000     0.1495540000 
 C        2.6448050000    -0.8527850000    -0.0539630000 
 C        3.7464130000     0.1977730000    -0.0813000000 
 N        5.0724310000    -0.3570400000    -0.2553020000 
 C        5.7719280000    -0.8557860000     0.8975730000 
 C        5.6114730000    -0.4229680000    -1.4932430000 
 O        5.0751970000    -0.0489750000    -2.5129210000 
 H        0.4916040000    -0.9897240000     0.1628160000 
 H        1.0400000000     0.4748520000    -0.6528490000 
 H        1.2223420000     0.3169400000     1.0957330000 
 H        2.6722110000    -1.4037650000    -0.9984450000 
 H        2.8436120000    -1.5782170000     0.7423030000 
 H        3.7385850000     0.7789710000     0.8478930000 
 H        3.5748100000     0.8862410000    -0.9113740000 
 H        5.9316240000    -0.0615240000     1.6343500000 
 H        6.7456390000    -1.2420710000     0.5927200000 
 H        5.2218830000    -1.6677900000     1.3835000000 
 H        6.6271680000    -0.8628800000    -1.4835580000 
*
