! RI PBE def2-SVP def2-SVP/J NBO PAL2
% maxcore 2000
% output
    # printlevel mini
    print[ P_Basis ] 0
    print[ P_SCFInfo ] 1
    print[ P_SCFIterInfo ] 1
    print[ P_OrbEn ] 0
    print[ P_Cartesian ] 0
end
*xyz 0 1
 C        2.6469150000     1.6290090000    -0.1399990000 
 C        2.3228830000     0.1609860000     0.0756350000 
 C        2.9403880000    -0.7622410000    -0.9665470000 
 N        4.3861410000    -0.7587180000    -0.9686470000 
 C        5.1110360000    -1.6168290000    -0.2079120000 
 C        6.6100520000    -1.4730280000    -0.3087180000 
 O        4.5953660000    -2.4551280000     0.5057190000 
 H        2.1728510000     2.2554160000     0.6184790000 
 H        2.2978030000     1.9741570000    -1.1182840000 
 H        3.7233300000     1.8125440000    -0.0840260000 
 H        1.2378570000     0.0137730000     0.0536660000 
 H        2.6605900000    -0.1619720000     1.0646470000 
 H        2.5982130000    -0.4831400000    -1.9683390000 
 H        2.6263960000    -1.7902860000    -0.7785580000 
 H        4.8740100000    -0.0711000000    -1.5133690000 
 H        6.9340000000    -0.6911650000    -0.9975830000 
 H        7.0287860000    -2.4280500000    -0.6291380000 
 H        7.0061900000    -1.2603390000     0.6853940000 
*
