! RI PBE def2-SVP def2-SVP/J NBO PAL2
% maxcore 2000
% output
    # printlevel mini
    print[ P_Basis ] 0
    print[ P_SCFInfo ] 1
    print[ P_SCFIterInfo ] 1
    print[ P_OrbEn ] 0
    print[ P_Cartesian ] 0
end
*xyz 0 1
 C        0.8079330000     0.4310050000    -0.3210490000 
 C        2.3115300000     0.2458260000    -0.2140730000 
 C        2.6945030000    -0.8896300000     0.7149960000 
 N        4.1328480000    -1.0678320000     0.7676010000 
 C        4.5655990000    -2.1123800000     1.6622530000 
 C        6.0235680000    -2.4358030000     1.4611300000 
 O        6.7569450000    -2.8231300000     2.3275620000 
 H        0.5568680000     1.2576150000    -0.9885920000 
 H        0.3621530000     0.6458100000     0.6540550000 
 H        0.3259940000    -0.4686890000    -0.7133690000 
 H        2.7704980000     1.1745410000     0.1467350000 
 H        2.7438760000     0.0509280000    -1.2000900000 
 H        2.2550950000    -1.8252230000     0.3485160000 
 H        2.2535490000    -0.7102680000     1.7119540000 
 H        4.5714730000    -0.1902440000     1.0218830000 
 H        4.0198820000    -3.0314050000     1.4039770000 
 H        4.3853300000    -1.9304520000     2.7328410000 
 H        6.3769670000    -2.2972690000     0.4162510000 
*
