! RI PBE def2-SVP def2-SVP/J NBO PAL2
% maxcore 2000
% output
    # printlevel mini
    print[ P_Basis ] 0
    print[ P_SCFInfo ] 1
    print[ P_SCFIterInfo ] 1
    print[ P_OrbEn ] 0
    print[ P_Cartesian ] 0
end
*xyz 0 1
 C        0.8502980000     0.0478660000     0.0423680000 
 C        2.3313140000     0.2136960000     0.0280850000 
 C        3.1487830000    -0.5259240000    -0.7162980000 
 N        4.5284280000    -0.3931150000    -0.7487880000 
 C        5.3231090000    -1.1900540000    -1.5417040000 
 N        6.6585810000    -0.9222850000    -1.4494310000 
 O        4.8790330000    -2.0583000000    -2.2631080000 
 H        0.4819160000    -0.1955510000     1.0444780000 
 H        0.5370100000    -0.7517620000    -0.6319220000 
 H        0.3392360000     0.9658100000    -0.2664690000 
 H        2.7493800000     0.9886460000     0.6692670000 
 H        2.7918300000    -1.3109180000    -1.3730680000 
 H        4.9505570000     0.3121740000    -0.1695390000 
 H        7.0478580000    -0.2112770000    -0.8606400000 
 H        7.2718770000    -1.4814360000    -2.0115200000 
*
