! RI PBE def2-SVP def2-SVP/J NBO PAL2
% maxcore 2000
% output
    # printlevel mini
    print[ P_Basis ] 0
    print[ P_SCFInfo ] 1
    print[ P_SCFIterInfo ] 1
    print[ P_OrbEn ] 0
    print[ P_Cartesian ] 0
end
*xyz 0 1
 C        0.9784980000    -0.1062410000     0.1256380000 
 C        2.3104900000     0.5191570000     0.3735240000 
 C        2.6162880000     1.1098820000     1.5322530000 
 N        3.2683740000     0.4843180000    -0.6429370000 
 C        3.1746990000    -0.0653100000    -1.9029800000 
 N        4.3157630000     0.0850610000    -2.6424560000 
 O        2.1976110000    -0.6311590000    -2.3440350000 
 H        0.3630430000     0.0133270000     1.0167060000 
 H        1.0752610000    -1.1663260000    -0.1116210000 
 H        0.4774330000     0.3513770000    -0.7281630000 
 H        1.8912660000     1.1488880000     2.3320410000 
 H        3.5848090000     1.5642650000     1.7117210000 
 H        4.1403840000     0.9259540000    -0.4032100000 
 H        5.1446160000     0.5451840000    -2.3180210000 
 H        4.3017460000    -0.2974590000    -3.5689700000 
*
