! RI PBE def2-SVP def2-SVP/J NBO PAL2
% maxcore 2000
% output
    # printlevel mini
    print[ P_Basis ] 0
    print[ P_SCFInfo ] 1
    print[ P_SCFIterInfo ] 1
    print[ P_OrbEn ] 0
    print[ P_Cartesian ] 0
end
*xyz 0 1
 C        0.9725480000     0.0004170000    -0.0732370000 
 C        2.4533790000     0.0689210000     0.1536380000 
 C        3.0553010000     1.0307210000     0.8819560000 
 N        2.4689690000     2.0757190000     1.5227970000 
 C        3.2442780000    -0.9819210000    -0.4659670000 
 N        4.5110170000    -1.0766530000    -0.3732540000 
 O        4.9826700000    -2.1853430000    -1.0724910000 
 H        0.4313640000     0.8135900000     0.4135380000 
 H        0.5500710000    -0.9346340000     0.3094680000 
 H        0.7266030000     0.0501480000    -1.1392110000 
 H        4.1345730000     0.9906730000     0.9855360000 
 H        1.4781670000     2.2214050000     1.5029640000 
 H        3.0244980000     2.7299440000     2.0359880000 
 H        2.7038940000    -1.7345840000    -1.0470080000 
 H        5.9304590000    -2.1417030000    -0.9243580000 
*
