! RI PBE def2-SVP def2-SVP/J NBO PAL2
% maxcore 2000
% output
    # printlevel mini
    print[ P_Basis ] 0
    print[ P_SCFInfo ] 1
    print[ P_SCFIterInfo ] 1
    print[ P_OrbEn ] 0
    print[ P_Cartesian ] 0
end
*xyz 0 1
 C        1.2465970000     0.3491010000    -0.1472700000 
 C        2.5378180000     0.0621380000     0.6035380000 
 C        2.6263410000     0.8843090000     1.8809490000 
 N        2.6005190000    -1.3465670000     0.9299950000 
 C        3.5764720000    -2.0374180000     0.5143790000 
 N        3.7002930000    -3.3462710000     0.8912540000 
 O        2.5713140000    -3.8545120000     1.5235190000 
 H        1.1719530000     1.4105940000    -0.3953190000 
 H        0.3853690000     0.0768780000     0.4680020000 
 H        1.1958890000    -0.2265340000    -1.0737790000 
 H        3.3859740000     0.3384890000    -0.0454720000 
 H        1.8045000000     0.6242040000     2.5526360000 
 H        2.5664920000     1.9525150000     1.6582270000 
 H        3.5646170000     0.6923690000     2.4052420000 
 H        4.3985280000    -1.6723720000    -0.1102670000 
 H        3.9961440000    -3.9827670000     0.1625520000 
 H        1.9942720000    -3.0614570000     1.5608140000 
*
