! RI PBE def2-SVP def2-SVP/J NBO PAL2
% maxcore 2000
% output
    # printlevel mini
    print[ P_Basis ] 0
    print[ P_SCFInfo ] 1
    print[ P_SCFIterInfo ] 1
    print[ P_OrbEn ] 0
    print[ P_Cartesian ] 0
end
*xyz 0 1
 C        0.9361640000     0.1634810000    -0.0199590000 
 C        2.4492090000     0.0655360000     0.0563450000 
 C        2.9796940000     0.4477010000     1.4312150000 
 N        2.8629930000    -1.2712570000    -0.3345120000 
 C        4.1268180000    -1.4959740000    -0.8081320000 
 N        4.4523600000    -2.8327250000    -0.9414930000 
 O        4.9098560000    -0.6077100000    -1.0799360000 
 H        0.6050930000     1.1724160000     0.2333390000 
 H        0.4619830000    -0.5240670000     0.6887660000 
 H        0.5771180000    -0.0772820000    -1.0223280000 
 H        2.8948370000     0.7351140000    -0.6827440000 
 H        2.5687050000    -0.2104760000     2.2034480000 
 H        2.7010220000     1.4742290000     1.6821090000 
 H        4.0679090000     0.3738890000     1.4513490000 
 H        2.4108930000    -2.0350170000     0.1428270000 
 H        3.7092680000    -3.4797140000    -1.1479550000 
 H        5.2913080000    -2.9757320000    -1.4789460000 
*
