! RI PBE def2-SVP def2-SVP/J NBO PAL2
% maxcore 2000
% output
    # printlevel mini
    print[ P_Basis ] 0
    print[ P_SCFInfo ] 1
    print[ P_SCFIterInfo ] 1
    print[ P_OrbEn ] 0
    print[ P_Cartesian ] 0
end
*xyz 0 1
 C        0.9855680000    -0.0459670000    -0.1507350000 
 C        2.4720040000    -0.1031010000     0.1859010000 
 C        2.7990230000     0.7026970000     1.4469250000 
 N        2.4715580000     2.1072020000     1.2650120000 
 C        2.9188470000    -1.5155980000     0.3592030000 
 N        3.8361380000    -1.9953210000    -0.3678800000 
 O        4.1063050000    -3.3184860000    -0.0541350000 
 H        0.6540450000     0.9914990000    -0.2022160000 
 H        0.3944020000    -0.5493890000     0.6207630000 
 H        0.7801610000    -0.5351210000    -1.1048940000 
 H        3.0501770000     0.3161690000    -0.6454940000 
 H        3.8521960000     0.5238620000     1.7103080000 
 H        2.1953710000     0.3197600000     2.2776470000 
 H        3.1178870000     2.5383900000     0.6149600000 
 H        2.5526650000     2.6100470000     2.1389240000 
 H        2.4398250000    -2.1352280000     1.1232590000 
 H        4.8008280000    -3.5498250000    -0.6766590000 
*
