! RI PBE def2-SVP def2-SVP/J NBO PAL2
% maxcore 2000
% output
    # printlevel mini
    print[ P_Basis ] 0
    print[ P_SCFInfo ] 1
    print[ P_SCFIterInfo ] 1
    print[ P_OrbEn ] 0
    print[ P_Cartesian ] 0
end
*xyz 0 1
 C        0.7950380000    -0.0127710000     0.0136420000 
 C        2.3032210000    -0.1944060000     0.1440290000 
 C        2.9406920000     0.9328360000     0.9563570000 
 N        2.7627670000     2.2145200000     0.2933980000 
 C        2.5977660000    -1.5180910000     0.8274600000 
 N        3.1256530000    -2.4872580000     0.0380400000 
 O        2.3704140000    -1.7001000000     2.0060960000 
 H        0.5785690000     0.9797130000    -0.3825830000 
 H        0.3262980000    -0.1079640000     0.9954830000 
 H        0.3559490000    -0.7628630000    -0.6483950000 
 H        2.7534240000    -0.1939470000    -0.8574370000 
 H        3.9934340000     0.6799960000     1.1528170000 
 H        2.4434580000     0.9662730000     1.9283270000 
 H        3.3992030000     2.3074330000    -0.4886980000 
 H        2.9627350000     2.9757380000     0.9282440000 
 H        3.2674930000    -2.3522610000    -0.9451670000 
 H        3.2822860000    -3.3970390000     0.4368860000 
*
