! RI PBE def2-SVP def2-SVP/J NBO PAL2
% maxcore 2000
% output
    # printlevel mini
    print[ P_Basis ] 0
    print[ P_SCFInfo ] 1
    print[ P_SCFIterInfo ] 1
    print[ P_OrbEn ] 0
    print[ P_Cartesian ] 0
end
*xyz 0 1
 C        2.8763640000    -1.3118510000     0.2591750000 
 C        2.5327140000     0.1603040000     0.1013750000 
 C        3.0260020000     0.7877050000    -1.2003930000 
 N        2.4495230000     2.0917200000    -1.5155490000 
 C        4.5135840000     0.9564490000    -1.2903840000 
 N        5.2591750000     0.7694410000    -0.2870350000 
 O        6.5886130000     1.0239060000    -0.5765990000 
 H        2.4391840000    -1.7187740000     1.1737550000 
 H        3.9553370000    -1.4628210000     0.3069240000 
 H        2.4886800000    -1.8985100000    -0.5792030000 
 H        2.9313130000     0.7332050000     0.9445900000 
 H        1.4441000000     0.2843290000     0.1228690000 
 H        2.7422820000     0.1216330000    -2.0281520000 
 H        2.6407670000     2.7433280000    -0.7625790000 
 H        1.4428760000     2.0192950000    -1.6011690000 
 H        4.9266700000     1.2959300000    -2.2417040000 
 H        7.0318050000     0.8381020000     0.2556690000 
*
