! RI PBE def2-SVP def2-SVP/J NBO PAL2
% maxcore 2000
% output
    # printlevel mini
    print[ P_Basis ] 0
    print[ P_SCFInfo ] 1
    print[ P_SCFIterInfo ] 1
    print[ P_OrbEn ] 0
    print[ P_Cartesian ] 0
end
*xyz 0 1
 C        3.0270660000     1.4312910000     0.9181200000 
 C        2.9733850000     0.6256230000    -0.3695990000 
 C        3.4298770000    -0.8286200000    -0.2341150000 
 N        2.9339170000    -1.7279490000    -1.2733530000 
 C        4.9562150000    -0.9462970000    -0.1271320000 
 N        5.4431040000    -2.1328240000    -0.5423140000 
 O        5.6515620000    -0.0575140000     0.3235610000 
 H        2.6478600000     2.4432730000     0.7575140000 
 H        4.0487630000     1.4984010000     1.2890160000 
 H        2.4092370000     0.9676560000     1.6936960000 
 H        3.5759450000     1.1164600000    -1.1416650000 
 H        1.9424780000     0.6036300000    -0.7406130000 
 H        3.0537380000    -1.2188570000     0.7211240000 
 H        3.0745810000    -1.3124340000    -2.1881840000 
 H        1.9372380000    -1.8679770000    -1.1681370000 
 H        4.8120160000    -2.7927240000    -0.9661750000 
 H        6.4323080000    -2.2984270000    -0.4901440000 
*
