! RI PBE def2-SVP def2-SVP/J NBO PAL2
% maxcore 2000
% output
    # printlevel mini
    print[ P_Basis ] 0
    print[ P_SCFInfo ] 1
    print[ P_SCFIterInfo ] 1
    print[ P_OrbEn ] 0
    print[ P_Cartesian ] 0
end
*xyz 0 1
 C        2.2710170000     0.9012410000    -1.3068750000 
 C        2.5163150000    -0.0946810000    -0.1776960000 
 C        2.9094810000     0.5640420000     1.1066210000 
 N        1.9918300000     1.2891400000     1.8113170000 
 C        0.5739750000     1.0373600000     1.7529150000 
 N        4.1447770000     0.4661510000     1.4433320000 
 O        4.3745200000     1.1601580000     2.6490490000 
 H        1.9944380000     0.3801870000    -2.2260530000 
 H        3.1748270000     1.4814340000    -1.5026170000 
 H        1.4719190000     1.6057230000    -1.0664330000 
 H        3.3321350000    -0.7673490000    -0.4449940000 
 H        1.6275640000    -0.7145400000    -0.0193830000 
 H        2.3498970000     1.6130820000     2.6959960000 
 H        0.2100490000     1.0841400000     0.7253930000 
 H        0.0574590000     1.8169000000     2.3142490000 
 H        0.2839230000     0.0657580000     2.1741920000 
 H        5.3030740000     0.9847510000     2.8120960000 
*
