! RI PBE def2-SVP def2-SVP/J NBO PAL2
% maxcore 2000
% output
    # printlevel mini
    print[ P_Basis ] 0
    print[ P_SCFInfo ] 1
    print[ P_SCFIterInfo ] 1
    print[ P_OrbEn ] 0
    print[ P_Cartesian ] 0
end
*xyz 0 1
 C        2.3617640000    -0.9382200000    -1.4570430000 
 C        2.4030800000     0.2725440000    -0.5420450000 
 C        3.2755570000     0.0679950000     0.6897720000 
 N        4.6624450000    -0.1066730000     0.3403350000 
 C        5.2608320000    -1.1707780000     0.6763220000 
 N        6.5470610000    -1.3901220000     0.2681810000 
 O        7.1520830000    -0.2735500000    -0.2968150000 
 H        1.7231790000    -0.7579470000    -2.3245340000 
 H        1.9695230000    -1.8158090000    -0.9336540000 
 H        3.3601760000    -1.1865860000    -1.8234300000 
 H        1.3917670000     0.5243070000    -0.2056270000 
 H        2.7783630000     1.1421570000    -1.0906910000 
 H        2.8941550000    -0.7874100000     1.2715900000 
 H        3.1940960000     0.9539280000     1.3290930000 
 H        4.8258250000    -1.9952040000     1.2508090000 
 H        7.1621430000    -1.7965810000     0.9609710000 
 H        6.4166510000     0.3766480000    -0.2777220000 
*
