! RI PBE def2-SVP def2-SVP/J NBO PAL2
% maxcore 2000
% output
    # printlevel mini
    print[ P_Basis ] 0
    print[ P_SCFInfo ] 1
    print[ P_SCFIterInfo ] 1
    print[ P_OrbEn ] 0
    print[ P_Cartesian ] 0
end
*xyz 0 1
 C        1.9800590000     0.0351790000     2.0651050000 
 C        2.1698450000     0.4005790000     0.6032420000 
 C        3.0574290000    -0.5724630000    -0.1623190000 
 N        4.4121530000    -0.6427290000     0.3341820000 
 C        4.8425440000    -1.6882450000     1.1015680000 
 N        6.1116550000    -1.5188710000     1.6245560000 
 O        4.1761220000    -2.6772560000     1.3324680000 
 H        1.3341810000     0.7571310000     2.5698220000 
 H        2.9342250000     0.0141020000     2.5965250000 
 H        1.5307530000    -0.9551090000     2.1677830000 
 H        2.5874050000     1.4121850000     0.5213190000 
 H        1.1995640000     0.4357730000     0.0960030000 
 H        3.0799850000    -0.2978580000    -1.2221810000 
 H        2.6574330000    -1.5855240000    -0.0916790000 
 H        4.9344780000     0.2159740000     0.3798380000 
 H        6.7718560000    -0.9723380000     1.0964960000 
 H        6.4884110000    -2.3702310000     2.0069610000 
*
