! RI PBE def2-SVP def2-SVP/J NBO PAL2
% maxcore 2000
% output
    # printlevel mini
    print[ P_Basis ] 0
    print[ P_SCFInfo ] 1
    print[ P_SCFIterInfo ] 1
    print[ P_OrbEn ] 0
    print[ P_Cartesian ] 0
end
*xyz 0 1
 C        0.9589240000     0.0701400000     0.0631540000 
 C        2.4820600000     0.0663600000    -0.0165820000 
 C        3.0391000000    -1.2428920000     0.5692220000 
 N        2.8860320000     0.2962840000    -1.3932460000 
 C        3.0907820000     1.1896960000     0.8088080000 
 O        2.4765200000     1.3629020000     1.9886230000 
 O        4.0553770000     1.8293460000     0.4861650000 
 H        0.5687960000    -0.7223410000    -0.5805340000 
 H        0.5611780000     1.0199080000    -0.2960830000 
 H        0.6062590000    -0.1058070000     1.0793860000 
 H        2.6456970000    -2.0854180000    -0.0059440000 
 H        2.7472830000    -1.3786740000     1.6129880000 
 H        4.1293910000    -1.2606320000     0.5032720000 
 H        2.8146470000    -0.5605470000    -1.9270470000 
 H        3.8474220000     0.6151650000    -1.4219440000 
 H        2.9681330000     2.0544000000     2.4536710000 
*
