! RI PBE def2-SVP def2-SVP/J NBO PAL2
% maxcore 2000
% output
    # printlevel mini
    print[ P_Basis ] 0
    print[ P_SCFInfo ] 1
    print[ P_SCFIterInfo ] 1
    print[ P_OrbEn ] 0
    print[ P_Cartesian ] 0
end
*xyz 0 1
 C        1.0405850000    -0.3661820000    -1.0859670000 
 C        2.5458490000    -0.2936040000    -0.8990830000 
 C        3.0852460000    -1.4372060000     0.0013910000 
 N        2.5260000000    -1.5569810000     1.3262730000 
 C        2.9576430000     1.0137270000    -0.2836950000 
 O        4.1254700000     1.4668270000    -0.7738440000 
 O        2.3664380000     1.5884020000     0.5938190000 
 H        0.7538150000    -1.3531450000    -1.4575150000 
 H        0.6925530000     0.3792050000    -1.8034900000 
 H        0.5222790000    -0.1800900000    -0.1445040000 
 H        3.0550260000    -0.3836540000    -1.8626930000 
 H        4.1707830000    -1.3280450000     0.0871220000 
 H        2.9101690000    -2.3763450000    -0.5320550000 
 H        2.6000670000    -0.6844270000     1.8361280000 
 H        1.5434240000    -1.7946540000     1.2886620000 
 H        4.3371610000     2.2729830000    -0.2815190000 
*
