! RI PBE def2-SVP def2-SVP/J NBO PAL2
% maxcore 2000
% output
    # printlevel mini
    print[ P_Basis ] 0
    print[ P_SCFInfo ] 1
    print[ P_SCFIterInfo ] 1
    print[ P_OrbEn ] 0
    print[ P_Cartesian ] 0
end
*xyz 0 1
 C        1.6364310000     0.0288100000     0.6370510000 
 C        2.2295650000    -0.1887630000    -0.7439340000 
 C        3.1886610000     0.9233240000    -1.2120190000 
 N        2.6012420000     2.2364780000    -1.3514560000 
 C        4.3527550000     1.0167800000    -0.2555400000 
 O        5.1782420000    -0.0355530000    -0.3643170000 
 O        4.5268730000     1.8986480000     0.5415750000 
 H        2.4063260000     0.0287320000     1.4129600000 
 H        0.9232460000    -0.7617200000     0.8787270000 
 H        1.1073720000     0.9824870000     0.7002240000 
 H        1.4286740000    -0.2496050000    -1.4890680000 
 H        2.7592750000    -1.1449500000    -0.7837180000 
 H        3.6041140000     0.6027330000    -2.1750500000 
 H        2.6859590000     2.7502160000    -0.4827380000 
 H        1.6243030000     2.1762950000    -1.6038750000 
 H        5.8700500000     0.0844870000     0.3012770000 
*
