! RI PBE def2-SVP def2-SVP/J NBO PAL2
% maxcore 2000
% output
    # printlevel mini
    print[ P_Basis ] 0
    print[ P_SCFInfo ] 1
    print[ P_SCFIterInfo ] 1
    print[ P_OrbEn ] 0
    print[ P_Cartesian ] 0
end
*xyz 0 1
 C        1.0758190000     0.0375850000    -0.2861350000 
 C        2.3762730000    -0.1055090000    -0.0745140000 
 C        3.2110940000     0.8301030000     0.7160840000 
 N        2.8429940000     1.8908300000     1.3078200000 
 N        4.5440450000     0.4371370000     0.7740990000 
 C        5.5468000000     1.1048540000     1.4326750000 
 O        6.6850880000     0.7104600000     1.4441700000 
 H        0.5233900000    -0.6839490000    -0.8745430000 
 H        0.5101850000     0.8727560000     0.1142950000 
 H        2.8870600000    -0.9641740000    -0.5028320000 
 H        1.8492670000     2.0528500000     1.1811530000 
 H        4.8272450000    -0.4069690000     0.3007880000 
 H        5.1945390000     2.0169260000     1.9329600000 
*
