! RI PBE def2-SVP def2-SVP/J NBO PAL2
% maxcore 2000
% output
    # printlevel mini
    print[ P_Basis ] 0
    print[ P_SCFInfo ] 1
    print[ P_SCFIterInfo ] 1
    print[ P_OrbEn ] 0
    print[ P_Cartesian ] 0
end
*xyz 0 1
 C        0.6715820000     0.4507630000    -0.1704860000 
 C        2.0824840000     0.0359360000    -0.4069230000 
 C        3.1291360000     0.7507070000    -0.0115720000 
 N        4.4696400000     0.4113430000    -0.2056150000 
 N        4.7658340000    -0.7777490000    -0.8702340000 
 C        5.4903790000     1.2006900000     0.2316550000 
 O        6.6603280000     0.9383950000     0.0811860000 
 H        0.1317270000    -0.2974830000     0.4188690000 
 H        0.1263320000     0.5576560000    -1.1138470000 
 H        0.6121900000     1.4031400000     0.3610770000 
 H        2.2663280000    -0.8972850000    -0.9285350000 
 H        3.0079960000     1.6927110000     0.5146980000 
 H        5.3487410000    -1.3381620000    -0.2554070000 
 H        5.3474500000    -0.5473210000    -1.6705150000 
 H        5.1292610000     2.1112600000     0.7405380000 
*
