! RI PBE def2-SVP def2-SVP/J NBO PAL2
% maxcore 2000
% output
    # printlevel mini
    print[ P_Basis ] 0
    print[ P_SCFInfo ] 1
    print[ P_SCFIterInfo ] 1
    print[ P_OrbEn ] 0
    print[ P_Cartesian ] 0
end
*xyz 0 1
 C        0.4495920000     0.1307950000     1.4895730000 
 C        1.5307160000    -0.1197260000     0.4914180000 
 C        2.7997420000     0.2493070000     0.6612020000 
 N        1.1319380000    -0.7605740000    -0.6995670000 
 N        0.1592460000    -1.7607650000    -0.6052990000 
 C        1.5399740000    -0.3664830000    -1.9384950000 
 O        1.1850760000    -0.9075100000    -2.9616360000 
 H        0.8463560000     0.6911260000     2.3352730000 
 H        0.0271530000    -0.8075020000     1.8518100000 
 H       -0.3719690000     0.6935980000     1.0379200000 
 H        3.0869480000     0.8286240000     1.5283230000 
 H        3.5729090000    -0.0082660000    -0.0513390000 
 H        0.6307400000    -2.6618250000    -0.6217830000 
 H       -0.3805960000    -1.7151930000    -1.4655430000 
 H        2.1908780000     0.5200930000    -1.9032570000 
*
