! RI PBE def2-SVP def2-SVP/J NBO PAL2
% maxcore 2000
% output
    # printlevel mini
    print[ P_Basis ] 0
    print[ P_SCFInfo ] 1
    print[ P_SCFIterInfo ] 1
    print[ P_OrbEn ] 0
    print[ P_Cartesian ] 0
end
*xyz 0 1
 C        0.9116320000    -0.2893110000     0.0991610000 
 C        2.3296310000     0.0859700000    -0.1684070000 
 C        2.6249610000     1.4816570000    -0.6326300000 
 N        3.2197870000    -0.8092080000     0.0144510000 
 N        4.5123290000    -0.4903680000    -0.2221440000 
 C        5.4885580000    -1.4214240000    -0.0372990000 
 O        6.6595570000    -1.2055320000    -0.2288240000 
 H        0.3017840000    -0.1598470000    -0.8009690000 
 H        0.4799630000     0.3579770000     0.8696170000 
 H        0.8478840000    -1.3256090000     0.4271970000 
 H        1.7104880000     2.0672770000    -0.7168690000 
 H        3.1114260000     1.4814550000    -1.6142710000 
 H        3.2902070000     2.0022250000     0.0650300000 
 H        4.7960370000     0.4298070000    -0.5378110000 
 H        5.0726660000    -2.3832820000     0.3055660000 
*
