! RI PBE def2-SVP def2-SVP/J NBO PAL2
% maxcore 2000
% output
    # printlevel mini
    print[ P_Basis ] 0
    print[ P_SCFInfo ] 1
    print[ P_SCFIterInfo ] 1
    print[ P_OrbEn ] 0
    print[ P_Cartesian ] 0
end
*xyz 0 1
 C        1.3478490000    -0.2499750000     0.2792570000 
 C        2.8491160000    -0.1419970000     0.5204240000 
 C        3.1576960000     0.6771770000     1.7588620000 
 N        3.5244840000    -1.4283480000     0.6652140000 
 N        3.4270060000    -2.2716430000    -0.4193550000 
 C        4.4827940000    -2.5114410000    -1.2439820000 
 O        5.6024700000    -2.0906540000    -1.1281880000 
 H        0.9048650000     0.7389220000     0.1392960000 
 H        0.8502820000    -0.7210940000     1.1333950000 
 H        1.1194640000    -0.8319090000    -0.6176670000 
 H        3.3139220000     0.3408490000    -0.3458600000 
 H        2.7353390000     0.2052000000     2.6525200000 
 H        2.7241420000     1.6757820000     1.6799410000 
 H        4.2354020000     0.7704390000     1.8980150000 
 H        3.2343770000    -1.9115180000     1.5071550000 
 H        2.5248530000    -2.6263900000    -0.7095950000 
 H        4.1687290000    -3.1799210000    -2.0721520000 
*
