! RI PBE def2-SVP def2-SVP/J NBO PAL2
% maxcore 2000
% output
    # printlevel mini
    print[ P_Basis ] 0
    print[ P_SCFInfo ] 1
    print[ P_SCFIterInfo ] 1
    print[ P_OrbEn ] 0
    print[ P_Cartesian ] 0
end
*xyz 0 1
 C        3.1603760000     1.0576720000    -1.7518380000 
 C        3.5993300000     0.1399190000    -0.6153050000 
 C        2.8578650000     0.4063010000     0.6465990000 
 N        3.4621350000     0.7612540000     1.7042290000 
 N        2.7243710000     0.9944400000     2.8092680000 
 C        3.3207400000     1.3769260000     3.9717650000 
 O        2.7137640000     1.5997290000     4.9892430000 
 H        3.6917140000     0.8127610000    -2.6734310000 
 H        3.3637750000     2.1031250000    -1.5106070000 
 H        2.0897020000     0.9616650000    -1.9507930000 
 H        4.6671250000     0.2499730000    -0.4156860000 
 H        3.4293290000    -0.9030920000    -0.9090500000 
 H        1.7647000000     0.2985960000     0.6280890000 
 H        1.7137480000     0.8915570000     2.8003500000 
 H        4.4149260000     1.4542730000     3.8598660000 
*
