! RI PBE def2-SVP def2-SVP/J NBO PAL2
% maxcore 2000
% output
    # printlevel mini
    print[ P_Basis ] 0
    print[ P_SCFInfo ] 1
    print[ P_SCFIterInfo ] 1
    print[ P_OrbEn ] 0
    print[ P_Cartesian ] 0
end
*xyz 0 1
 C        1.3209460000     0.4080160000     0.2493180000 
 C        2.8158990000     0.5574450000     0.0207530000 
 C        3.1826400000     0.4555560000    -1.4550470000 
 N        4.5876490000     0.6079580000    -1.7846750000 
 N        5.4133140000    -0.3637190000    -1.2606730000 
 C        6.0358250000    -1.2861790000    -2.0440780000 
 O        5.9975580000    -1.3640420000    -3.2424040000 
 H        1.0671440000     0.4852160000     1.3083750000 
 H        0.9633650000    -0.5614020000    -0.1080790000 
 H        0.7619730000     1.1818270000    -0.2839030000 
 H        3.3453130000    -0.2154150000     0.5899230000 
 H        3.1572290000     1.5241030000     0.4104500000 
 H        2.6476870000     1.2268470000    -2.0190460000 
 H        2.8550860000    -0.5076260000    -1.8583490000 
 H        4.9410940000     1.5261300000    -1.5483490000 
 H        5.4952840000    -0.4759630000    -0.2586160000 
 H        6.6156030000    -1.9875320000    -1.4086990000 
*
