! RI PBE def2-SVP def2-SVP/J NBO PAL2
% maxcore 2000
% output
    # printlevel mini
    print[ P_Basis ] 0
    print[ P_SCFInfo ] 1
    print[ P_SCFIterInfo ] 1
    print[ P_OrbEn ] 0
    print[ P_Cartesian ] 0
end
*xyz 0 1
 C        1.0161050000     0.0999200000    -0.2154760000 
 C        2.5143440000    -0.1316320000    -0.0371040000 
 C        2.8021740000    -1.0743920000     1.0965380000 
 N        2.9270870000    -2.3453030000     0.9976240000 
 O        2.7739830000    -2.7807490000    -0.2993550000 
 C        2.9199610000    -0.5367480000     2.4114720000 
 C        3.0032780000    -0.0069630000     3.4873280000 
 H        0.8343900000     0.8041370000    -1.0298880000 
 H        0.5711060000     0.5113900000     0.6930090000 
 H        0.5048670000    -0.8345960000    -0.4527380000 
 H        3.0150140000     0.8159970000     0.1734320000 
 H        2.9418900000    -0.5451720000    -0.9515580000 
 H        2.9152380000    -3.7285100000    -0.2212560000 
 H        3.0817520000     0.4408010000     4.4497650000 
*
