! RI PBE def2-SVP def2-SVP/J NBO PAL2
% maxcore 2000
% output
    # printlevel mini
    print[ P_Basis ] 0
    print[ P_SCFInfo ] 1
    print[ P_SCFIterInfo ] 1
    print[ P_OrbEn ] 0
    print[ P_Cartesian ] 0
end
*xyz 0 1
 C        0.7553650000     0.1369410000     0.0907280000 
 C        2.2318070000     0.0970200000    -0.1092710000 
 C        3.0782340000    -0.3734970000     0.8035830000 
 N        4.4565900000    -0.4242260000     0.6903180000 
 O        5.0152320000     0.0088240000    -0.4847100000 
 C        5.3026690000    -1.0099900000     1.6016890000 
 N        6.5565180000    -1.1554420000     1.5282190000 
 H        0.2344750000    -0.4523210000    -0.6707620000 
 H        0.3681300000     1.1582730000     0.0161950000 
 H        0.4712510000    -0.2563440000     1.0692350000 
 H        2.6245100000     0.4519110000    -1.0563840000 
 H        2.7311000000    -0.7585040000     1.7571680000 
 H        5.1163850000     0.9667370000    -0.3902560000 
 H        4.7570510000    -1.3651260000     2.4770060000 
 H        6.9095830000    -0.7942460000     0.6427230000 
*
