! RI PBE def2-SVP def2-SVP/J NBO PAL2
% maxcore 2000
% output
    # printlevel mini
    print[ P_Basis ] 0
    print[ P_SCFInfo ] 1
    print[ P_SCFIterInfo ] 1
    print[ P_OrbEn ] 0
    print[ P_Cartesian ] 0
end
*xyz 0 1
 C        0.9182370000     0.1335310000    -0.3561720000 
 C        2.3839590000     0.1079250000     0.0362590000 
 C        2.8557130000     1.4453650000     0.5893840000 
 N        2.6404930000    -1.0010010000     0.9554840000 
 O        2.0112480000    -0.8121890000     2.1896590000 
 C        3.9406700000    -1.4625750000     1.0837800000 
 N        4.5179400000    -1.9374610000     2.1020740000 
 H        0.7431490000     0.8965030000    -1.1170560000 
 H        0.2923360000     0.3750500000     0.5058490000 
 H        0.6046450000    -0.8320870000    -0.7580500000 
 H        2.9769340000    -0.1417000000    -0.8502350000 
 H        2.3039410000     1.7007060000     1.4959000000 
 H        2.6931020000     2.2380600000    -0.1440470000 
 H        3.9200260000     1.4177260000     0.8331450000 
 H        1.3209710000    -1.4830520000     2.2108910000 
 H        4.4635090000    -1.4346440000     0.1254430000 
 H        3.9046470000    -1.8699380000     2.9145220000 
*
