! RI PBE def2-SVP def2-SVP/J NBO PAL2
% maxcore 2000
% output
    # printlevel mini
    print[ P_Basis ] 0
    print[ P_SCFInfo ] 1
    print[ P_SCFIterInfo ] 1
    print[ P_OrbEn ] 0
    print[ P_Cartesian ] 0
end
*xyz 0 1
 C        0.8383510000     0.0827630000     0.0405540000 
 C        2.3392400000     0.2578580000     0.1963950000 
 C        3.0458300000    -1.0681060000     0.4010660000 
 N        4.4783250000    -0.9191990000     0.5749190000 
 O        5.0938610000    -0.5505890000    -0.6252410000 
 C        5.1726790000    -1.9148480000     1.2471680000 
 N        6.3470500000    -2.3322680000     1.0466610000 
 H        0.3428380000     1.0428690000    -0.1147000000 
 H        0.3965270000    -0.3778120000     0.9285820000 
 H        0.6002140000    -0.5543710000    -0.8155300000 
 H        2.5599380000     0.9102980000     1.0474240000 
 H        2.7474230000     0.7450780000    -0.6939990000 
 H        2.8387650000    -1.7427100000    -0.4417920000 
 H        2.6720700000    -1.5533550000     1.3074830000 
 H        5.4058520000     0.3472150000    -0.4709290000 
 H        4.5884150000    -2.3087520000     2.0808810000 
 H        6.7425900000    -1.8817610000     0.2211780000 
*
