! RI PBE def2-SVP def2-SVP/J NBO PAL2
% maxcore 2000
% output
    # printlevel mini
    print[ P_Basis ] 0
    print[ P_SCFInfo ] 1
    print[ P_SCFIterInfo ] 1
    print[ P_OrbEn ] 0
    print[ P_Cartesian ] 0
end
*xyz 0 1
 C        0.5846830000     0.0281390000     0.3076260000 
 C        1.9645700000     0.4785790000    -0.0267000000 
 C        3.0428950000    -0.2757040000     0.1642590000 
 N        4.3466790000     0.1054920000    -0.1209150000 
 O        4.5676790000     1.3444730000    -0.6729310000 
 C        5.4336720000    -0.7142260000    -0.0090240000 
 O        5.3849370000    -1.8528020000     0.3854040000 
 H       -0.0544080000     0.0230020000    -0.5810100000 
 H        0.1111020000     0.6996780000     1.0308820000 
 H        0.5821620000    -0.9780900000     0.7306220000 
 H        2.0787260000     1.4632110000    -0.4694390000 
 H        3.0070570000    -1.2768210000     0.5776800000 
 H        4.5136340000     1.9718700000     0.0613010000 
 H        6.3521200000    -0.1938200000    -0.3267860000 
*
