! RI PBE def2-SVP def2-SVP/J NBO PAL2
% maxcore 2000
% output
    # printlevel mini
    print[ P_Basis ] 0
    print[ P_SCFInfo ] 1
    print[ P_SCFIterInfo ] 1
    print[ P_OrbEn ] 0
    print[ P_Cartesian ] 0
end
*xyz 0 1
 C        0.6040240000     0.6346860000     0.4019260000 
 C        2.0061970000     0.1390280000     0.2505740000 
 C        3.0509980000     0.6874620000     0.8688970000 
 N        2.1696110000    -0.9570530000    -0.5922240000 
 O        3.4484230000    -1.4277350000    -0.7434560000 
 C        1.2428850000    -1.6396270000    -1.2954980000 
 O        1.5632170000    -2.5873030000    -1.9941760000 
 H        0.6053470000     1.4869750000     1.0787530000 
 H       -0.0563870000    -0.1296770000     0.8206190000 
 H        0.1800920000     0.9602340000    -0.5519610000 
 H        2.8939280000     1.5374210000     1.5178000000 
 H        4.0539340000     0.3083620000     0.7422100000 
 H        3.2918580000    -2.1725080000    -1.3639650000 
 H        0.2185830000    -1.2722660000    -1.1819080000 
*
