! RI PBE def2-SVP def2-SVP/J NBO PAL2
% maxcore 2000
% output
    # printlevel mini
    print[ P_Basis ] 0
    print[ P_SCFInfo ] 1
    print[ P_SCFIterInfo ] 1
    print[ P_OrbEn ] 0
    print[ P_Cartesian ] 0
end
*xyz 0 1
 C        0.8891900000     0.2545160000    -0.1055950000 
 C        2.3368730000    -0.0581400000     0.2301640000 
 C        2.9609170000     0.9834890000     1.1468870000 
 N        2.4554010000    -1.3955080000     0.7894130000 
 O        1.8390420000    -1.5982410000     2.0156900000 
 C        3.5030950000    -2.2190770000     0.5234780000 
 O        4.2878120000    -2.0595800000    -0.3819060000 
 H        0.8230670000     1.2179050000    -0.6143920000 
 H        0.2785830000     0.3201070000     0.7990180000 
 H        0.4642830000    -0.5063540000    -0.7640230000 
 H        2.9203430000    -0.1231740000    -0.6915560000 
 H        2.4470480000     1.0093540000     2.1100720000 
 H        2.8888040000     1.9745300000     0.6939840000 
 H        4.0158770000     0.7638670000     1.3202690000 
 H        0.9763730000    -1.9755070000     1.8087020000 
 H        3.5269030000    -3.0722770000     1.2237070000 
*
