! RI PBE def2-SVP def2-SVP/J NBO PAL2
% maxcore 2000
% output
    # printlevel mini
    print[ P_Basis ] 0
    print[ P_SCFInfo ] 1
    print[ P_SCFIterInfo ] 1
    print[ P_OrbEn ] 0
    print[ P_Cartesian ] 0
end
*xyz 0 1
 C        0.8841710000     0.0033200000     0.2383580000 
 C        2.3904990000     0.0310190000     0.3054900000 
 C        2.9319890000    -0.3140120000     1.6857330000 
 N        2.6097050000     0.7447360000     2.6298780000 
 O        2.8607700000    -0.9160640000    -0.6563980000 
 N        4.1757200000    -0.6836190000    -0.9562250000 
 C        4.6397310000    -1.5306090000    -1.7734750000 
 H        0.4802740000     0.6504380000     1.0174630000 
 H        0.5170100000    -1.0124480000     0.4060640000 
 H        0.5272470000     0.3440060000    -0.7348220000 
 H        2.7666610000     1.0191530000     0.0130870000 
 H        4.0070040000    -0.5163730000     1.5871800000 
 H        2.4553650000    -1.2400210000     2.0231810000 
 H        3.1974470000     1.5536040000     2.4675600000 
 H        2.7829320000     0.4425320000     3.5791550000 
 H        5.6732000000    -1.4016760000    -2.0708040000 
 H        4.0454630000    -2.3516770000    -2.1721160000 
*
