! RI PBE def2-SVP def2-SVP/J NBO PAL2
% maxcore 2000
% output
    # printlevel mini
    print[ P_Basis ] 0
    print[ P_SCFInfo ] 1
    print[ P_SCFIterInfo ] 1
    print[ P_OrbEn ] 0
    print[ P_Cartesian ] 0
end
*xyz 0 1
 C        1.0975110000     0.4979050000    -0.2276010000 
 C        2.3190310000    -0.0168740000    -0.3758460000 
 C        2.6210320000    -0.6773990000    -1.6655710000 
 O        3.6645030000    -1.2157850000    -1.9265950000 
 C        3.4002610000    -0.0072890000     0.6298310000 
 C        4.1275310000     1.2524760000     0.9225300000 
 N        3.2582580000     0.6445590000     1.9200260000 
 H        0.3827370000     0.4521790000    -1.0425350000 
 H        0.7581510000     0.9716310000     0.6866650000 
 H        1.7888770000    -0.6479620000    -2.4009930000 
 H        3.9780520000    -0.9256310000     0.6542710000 
 H        3.7871910000     2.1480050000     0.4124390000 
 H        5.1883950000     1.2154980000     1.1430410000 
 H        2.3818600000     1.1513780000     1.9788490000 
*
