! RI PBE def2-SVP def2-SVP/J NBO PAL2
% maxcore 2000
% output
    # printlevel mini
    print[ P_Basis ] 0
    print[ P_SCFInfo ] 1
    print[ P_SCFIterInfo ] 1
    print[ P_OrbEn ] 0
    print[ P_Cartesian ] 0
end
*xyz 0 1
 C        1.2223660000    -0.6489930000     0.9172440000 
 C        1.3166790000    -0.6881470000    -0.4078710000 
 C        2.5731130000    -0.6024400000    -1.1787430000 
 O        2.5558400000    -0.7551790000    -2.3846860000 
 C        3.8629980000    -0.3417090000    -0.4787050000 
 C        4.9572940000    -1.3146420000    -0.7555430000 
 N        4.9975880000     0.0152150000    -1.3148520000 
 H        2.0884110000    -0.5311480000     1.5579330000 
 H        0.2628330000    -0.7433050000     1.4123580000 
 H        0.4345940000    -0.8198040000    -1.0270820000 
 H        3.8284630000     0.1471430000     0.4870590000 
 H        4.7131410000    -2.1462400000    -1.4090980000 
 H        5.6795190000    -1.5209860000     0.0268360000 
 H        4.6750710000    -0.0247660000    -2.2810500000 
*
