! RI PBE def2-SVP def2-SVP/J NBO PAL2
% maxcore 2000
% output
    # printlevel mini
    print[ P_Basis ] 0
    print[ P_SCFInfo ] 1
    print[ P_SCFIterInfo ] 1
    print[ P_OrbEn ] 0
    print[ P_Cartesian ] 0
end
*xyz 0 1
 C        1.2001540000    -0.3151150000     0.1445060000 
 C        2.6882400000    -0.0697940000    -0.0724090000 
 C        2.9323700000     0.7206840000    -1.3503050000 
 O        3.2277980000     0.6282560000     1.0460030000 
 C        3.4176920000    -1.3973310000    -0.1409110000 
 C        4.8281910000    -1.5205760000     0.2599030000 
 N        3.7648010000    -2.1115160000     1.0765450000 
 H        0.6597510000     0.6341420000     0.2186410000 
 H        1.0375800000    -0.8815820000     1.0633940000 
 H        0.7696170000    -0.8770620000    -0.6873590000 
 H        2.3885960000     1.6699420000    -1.3270380000 
 H        2.5932690000     0.1641140000    -2.2275140000 
 H        3.9967950000     0.9324780000    -1.4630160000 
 H        2.6943110000     1.4125460000     1.1955760000 
 H        3.0507860000    -2.0385310000    -0.9390940000 
 H        5.3180100000    -0.6298030000     0.6368950000 
 H        5.4723110000    -2.2333390000    -0.2436490000 
 H        3.5928380000    -1.4924240000     1.8642510000 
*
