! RI PBE def2-SVP def2-SVP/J NBO PAL2
% maxcore 2000
% output
    # printlevel mini
    print[ P_Basis ] 0
    print[ P_SCFInfo ] 1
    print[ P_SCFIterInfo ] 1
    print[ P_OrbEn ] 0
    print[ P_Cartesian ] 0
end
*xyz 0 1
 C        1.2882470000    -0.2836970000    -0.6934240000 
 C        2.7021960000    -0.1794350000    -0.1276950000 
 C        3.3211090000     1.1780340000    -0.4430970000 
 O        2.6151830000     2.2856830000     0.0908500000 
 C        2.7071650000    -0.5776320000     1.3330280000 
 C        3.7018700000    -0.1129600000     2.3168130000 
 N        2.3153550000     0.3418690000     2.3976930000 
 H        1.2660890000    -0.0474980000    -1.7614730000 
 H        0.6017750000     0.3911150000    -0.1739530000 
 H        0.8917240000    -1.2933770000    -0.5683110000 
 H        3.3285540000    -0.9121580000    -0.6559270000 
 H        3.4147050000     1.2748610000    -1.5330450000 
 H        4.3297570000     1.2453470000    -0.0312910000 
 H        1.7746130000     2.3604710000    -0.3679040000 
 H        2.3100820000    -1.5803730000     1.4857860000 
 H        4.4574720000     0.5983380000     1.9999620000 
 H        4.0190690000    -0.7777410000     3.1137520000 
 H        2.2562260000     1.2805520000     2.0130150000 
*
