! RI PBE def2-SVP def2-SVP/J NBO PAL2
% maxcore 2000
% output
    # printlevel mini
    print[ P_Basis ] 0
    print[ P_SCFInfo ] 1
    print[ P_SCFIterInfo ] 1
    print[ P_OrbEn ] 0
    print[ P_Cartesian ] 0
end
*xyz 0 1
 C        0.9981760000     0.2467690000    -0.0474900000 
 C        2.5088260000     0.1530030000    -0.0341020000 
 C        3.0347150000    -1.2557470000     0.0304680000 
 O        2.3161360000    -2.2285730000    -0.0192710000 
 C        4.5119340000    -1.4104580000     0.1590630000 
 C        4.9785030000    -2.3260660000     1.2380570000 
 N        5.0780740000    -2.7143670000    -0.1484500000 
 H        0.6761150000     1.2873340000    -0.1155450000 
 H        0.5714720000    -0.1868830000     0.8583250000 
 H        0.5820650000    -0.3006050000    -0.8941540000 
 H        2.9439780000     0.7076400000     0.8067000000 
 H        2.9458200000     0.6143100000    -0.9294300000 
 H        5.1235030000    -0.5533650000    -0.1036560000 
 H        4.2081010000    -2.7839110000     1.8503810000 
 H        5.9171710000    -2.1071440000     1.7351030000 
 H        4.2968130000    -3.3291390000    -0.3733960000 
*
