! RI PBE def2-SVP def2-SVP/J NBO PAL2
% maxcore 2000
% output
    # printlevel mini
    print[ P_Basis ] 0
    print[ P_SCFInfo ] 1
    print[ P_SCFIterInfo ] 1
    print[ P_OrbEn ] 0
    print[ P_Cartesian ] 0
end
*xyz 0 1
 C        1.2485760000     0.3634470000     0.1075640000 
 C        2.7600270000     0.2600370000    -0.0103590000 
 C        3.2277590000    -0.3767300000    -1.3134030000 
 O        2.8166480000     0.3712160000    -2.4444640000 
 C        4.7317050000    -0.4843770000    -1.3608500000 
 C        5.4519890000    -0.5794660000    -2.6402260000 
 N        5.5316760000     0.6378960000    -1.8301950000 
 H        0.9555160000     0.7568880000     1.0828120000 
 H        0.7714490000    -0.6144660000    -0.0101170000 
 H        0.8247380000     1.0403160000    -0.6405690000 
 H        3.1517610000    -0.3408110000     0.8170850000 
 H        3.2165890000     1.2514200000     0.0763460000 
 H        2.8127410000    -1.3963770000    -1.3742430000 
 H        1.8593170000     0.4329420000    -2.4370780000 
 H        5.1494860000    -0.9924210000    -0.4949080000 
 H        4.8585510000    -0.5459750000    -3.5470730000 
 H        6.3707000000    -1.1530330000    -2.7002630000 
 H        4.9053840000     1.3295950000    -2.2327710000 
*
