! RI PBE def2-SVP def2-SVP/J NBO PAL2
% maxcore 2000
% output
    # printlevel mini
    print[ P_Basis ] 0
    print[ P_SCFInfo ] 1
    print[ P_SCFIterInfo ] 1
    print[ P_OrbEn ] 0
    print[ P_Cartesian ] 0
end
*xyz 0 1
 C        1.2271920000    -0.0242580000    -1.0420230000 
 C        2.1984870000     0.1554320000    -0.1604260000 
 C        2.9152890000    -0.9543720000     0.5218430000 
 O        4.3120310000    -0.7722590000     0.3425840000 
 C        5.0836060000    -1.7274760000     1.0000330000 
 C        5.0068700000    -1.6254480000     2.4655800000 
 N        4.9389030000    -1.5441370000     3.6099800000 
 H        0.7049240000     0.8137800000    -1.4880060000 
 H        0.9129830000    -1.0181200000    -1.3453590000 
 H        2.5045740000     1.1582030000     0.1259870000 
 H        2.6050020000    -1.9266600000     0.1143040000 
 H        2.6820780000    -0.9473110000     1.5972250000 
 H        6.1215780000    -1.5712140000     0.6983810000 
 H        4.7995940000    -2.7518700000     0.7181160000 
*
