! RI PBE def2-SVP def2-SVP/J NBO PAL2
% maxcore 2000
% output
    # printlevel mini
    print[ P_Basis ] 0
    print[ P_SCFInfo ] 1
    print[ P_SCFIterInfo ] 1
    print[ P_OrbEn ] 0
    print[ P_Cartesian ] 0
end
*xyz 0 1
 C        1.0599870000    -0.0122100000     0.0220300000 
 C        2.2555840000    -0.0313790000     0.1029790000 
 C        3.7029860000    -0.0768110000     0.1716600000 
 O        4.1551400000     0.7353630000     1.2413150000 
 C        5.5463300000     0.7950800000     1.3261460000 
 C        6.1615970000    -0.4937350000     1.6755240000 
 N        6.6358400000    -1.5074580000     1.9364370000 
 H       -0.0024880000     0.0056620000    -0.0431010000 
 H        4.1288920000     0.2803190000    -0.7777720000 
 H        4.0337200000    -1.1149980000     0.3138960000 
 H        5.7879150000     1.5186050000     2.1071070000 
 H        6.0004870000     1.1433720000     0.3870890000 
*
