! RI PBE def2-SVP def2-SVP/J NBO PAL2
% maxcore 2000
% output
    # printlevel mini
    print[ P_Basis ] 0
    print[ P_SCFInfo ] 1
    print[ P_SCFIterInfo ] 1
    print[ P_OrbEn ] 0
    print[ P_Cartesian ] 0
end
*xyz 0 1
 C        0.6312180000    -1.8625060000    -2.1211240000 
 C        2.1231320000    -1.8302740000    -2.1569470000 
 C        2.8356600000    -0.9438790000    -1.4653170000 
 O        4.1764890000    -0.8086870000    -1.4105420000 
 C        4.9438210000    -1.7112550000    -2.1740940000 
 C        6.4044220000    -1.3775800000    -1.9687430000 
 N        7.2216000000    -2.3195530000    -2.7147800000 
 H        0.2018170000    -1.7105880000    -3.1166670000 
 H        0.2327640000    -1.0849300000    -1.4652850000 
 H        0.2580490000    -2.8260960000    -1.7594200000 
 H        2.6211550000    -2.5658240000    -2.7797430000 
 H        2.3560710000    -0.1982590000    -0.8378520000 
 H        4.6856880000    -1.6354230000    -3.2369630000 
 H        4.7356820000    -2.7419530000    -1.8521600000 
 H        6.6101100000    -1.3473780000    -0.8888290000 
 H        6.5898910000    -0.3725730000    -2.3566800000 
 H        7.2238930000    -3.2273340000    -2.2662120000 
 H        8.1823470000    -2.0075990000    -2.7544540000 
*
