! RI PBE def2-SVP def2-SVP/J NBO PAL2
% maxcore 2000
% output
    # printlevel mini
    print[ P_Basis ] 0
    print[ P_SCFInfo ] 1
    print[ P_SCFIterInfo ] 1
    print[ P_OrbEn ] 0
    print[ P_Cartesian ] 0
end
*xyz 0 1
 C        1.2352890000     1.2524650000    -0.9550760000 
 C        2.5504700000     0.5791150000    -1.1486790000 
 C        3.0460430000     0.2230970000    -2.3349230000 
 O        3.1584310000     0.3849780000     0.0437390000 
 C        4.4195980000    -0.2458380000     0.0452200000 
 C        4.8892450000    -0.3493520000     1.4791590000 
 N        6.1747780000    -1.0257090000     1.5144100000 
 H        0.7370150000     1.4139060000    -1.9095950000 
 H        1.3726240000     2.2164140000    -0.4579350000 
 H        0.5894080000     0.6461520000    -0.3144180000 
 H        2.4719990000     0.4270600000    -3.2274790000 
 H        4.0041070000    -0.2614780000    -2.4558560000 
 H        5.1407190000     0.3294370000    -0.5462760000 
 H        4.3368270000    -1.2448670000    -0.4053170000 
 H        4.1009800000    -0.8324590000     2.0748190000 
 H        5.0163640000     0.6604630000     1.8781640000 
 H        6.0658090000    -2.0147210000     1.3264360000 
 H        6.5978130000    -0.9440430000     2.4289080000 
*
