! RI PBE def2-SVP def2-SVP/J NBO PAL2
% maxcore 2000
% output
    # printlevel mini
    print[ P_Basis ] 0
    print[ P_SCFInfo ] 1
    print[ P_SCFIterInfo ] 1
    print[ P_OrbEn ] 0
    print[ P_Cartesian ] 0
end
*xyz 0 1
 C        0.8760820000    -0.1825240000     0.2018840000 
 C        2.3098080000     0.0023130000    -0.1504220000 
 C        2.7590830000     0.4771150000    -1.3110260000 
 O        3.0955450000    -0.3871430000     0.8912300000 
 C        4.4798530000    -0.2689650000     0.7070000000 
 C        5.1553260000    -0.7244680000     1.9158000000 
 N        5.7234860000    -1.0752220000     2.8498400000 
 H        0.2333970000     0.1266830000    -0.6203580000 
 H        0.6266190000     0.4030710000     1.0903010000 
 H        0.6766660000    -1.2312250000     0.4363010000 
 H        2.0465070000     0.7579710000    -2.0731410000 
 H        3.8066440000     0.6024420000    -1.5462120000 
 H        4.7672220000     0.7722630000     0.5119000000 
 H        4.8213610000    -0.8776120000    -0.1402080000 
*
