! RI PBE def2-SVP def2-SVP/J NBO PAL2
% maxcore 2000
% output
    # printlevel mini
    print[ P_Basis ] 0
    print[ P_SCFInfo ] 1
    print[ P_SCFIterInfo ] 1
    print[ P_OrbEn ] 0
    print[ P_Cartesian ] 0
end
*xyz 0 1
 C        0.9673810000     0.1006550000     0.0275810000 
 C        2.4517320000     0.1101590000    -0.0268840000 
 C        3.0796520000     0.3403950000    -1.3507810000 
 O        2.4330660000     0.5142600000    -2.3504870000 
 C        3.2280000000    -0.0775100000     1.0524060000 
 C        4.6492810000    -0.0739470000     1.0320980000 
 N        5.8012640000    -0.0808530000     1.0719480000 
 H        0.5723000000    -0.6692830000    -0.6399210000 
 H        0.5722630000     1.0507150000    -0.3408200000 
 H        0.6011180000    -0.0751510000     1.0385190000 
 H        4.1859100000     0.3433940000    -1.3676970000 
 H        2.7829230000    -0.2471940000     2.0281180000 
*
