! RI PBE def2-SVP def2-SVP/J NBO PAL2
% maxcore 2000
% output
    # printlevel mini
    print[ P_Basis ] 0
    print[ P_SCFInfo ] 1
    print[ P_SCFIterInfo ] 1
    print[ P_OrbEn ] 0
    print[ P_Cartesian ] 0
end
*xyz 0 1
 C        0.5500550000    -0.1031100000     0.7761870000 
 C        1.8442360000    -0.8610060000     0.5786340000 
 C        2.4221000000    -1.3488780000     1.8967150000 
 O        1.5579610000    -1.9306520000    -0.3039790000 
 C        2.6850620000    -2.5717950000    -0.8520680000 
 C        2.2199500000    -3.4496970000    -1.9872260000 
 N        1.6536900000    -2.6352660000    -3.0481250000 
 H        0.7057580000     0.7630160000     1.4226580000 
 H       -0.1988290000    -0.7498320000     1.2402170000 
 H        0.1585040000     0.2441540000    -0.1814820000 
 H        2.5785630000    -0.1986560000     0.0921920000 
 H        1.7194070000    -2.0272520000     2.3877180000 
 H        2.6095120000    -0.5043020000     2.5639470000 
 H        3.3685170000    -1.8746470000     1.7564500000 
 H        3.1993620000    -3.1847580000    -0.0990740000 
 H        3.3947890000    -1.8229650000    -1.2338010000 
 H        1.5258050000    -4.2005680000    -1.5781080000 
 H        3.0888640000    -3.9892340000    -2.3771500000 
 H        0.8766960000    -2.1040100000    -2.6736750000 
 H        1.2897010000    -3.2165500000    -3.7919190000 
*
