! RI PBE def2-SVP def2-SVP/J NBO PAL2
% maxcore 2000
% output
    # printlevel mini
    print[ P_Basis ] 0
    print[ P_SCFInfo ] 1
    print[ P_SCFIterInfo ] 1
    print[ P_OrbEn ] 0
    print[ P_Cartesian ] 0
end
*xyz 0 1
 C        0.8981080000     0.2389110000     0.0263610000 
 C        2.4162950000     0.3378640000    -0.0541720000 
 C        2.8268430000     1.7061670000    -0.5850050000 
 O        2.9733860000     0.1380810000     1.2458190000 
 C        2.9566490000    -0.8002870000    -0.9151130000 
 C        4.4631350000    -0.8295800000    -1.0999630000 
 N        4.8393650000    -2.0254570000    -1.8451430000 
 H        0.4961780000     1.0150840000     0.6854220000 
 H        0.6030820000    -0.7342190000     0.4242280000 
 H        0.4389290000     0.3669060000    -0.9568870000 
 H        2.3824200000     2.4996260000     0.0242250000 
 H        2.4883840000     1.8491430000    -1.6142240000 
 H        3.9105770000     1.8261050000    -0.5550540000 
 H        2.6401870000     0.8315560000     1.8220750000 
 H        2.4778200000    -0.7678910000    -1.8982650000 
 H        2.6429290000    -1.7389110000    -0.4428680000 
 H        4.9456130000    -0.7463770000    -0.1166960000 
 H        4.7823870000     0.0354590000    -1.6890660000 
 H        4.6191770000    -2.8530940000    -1.3030040000 
 H        5.8390470000    -2.0424960000    -2.0043900000 
*
