! RI PBE def2-SVP def2-SVP/J NBO PAL2
% maxcore 2000
% output
    # printlevel mini
    print[ P_Basis ] 0
    print[ P_SCFInfo ] 1
    print[ P_SCFIterInfo ] 1
    print[ P_OrbEn ] 0
    print[ P_Cartesian ] 0
end
*xyz 0 1
 C        0.8624230000     0.0950950000    -0.1232680000 
 C        2.3825700000     0.1234830000    -0.0294860000 
 C        2.9029810000     1.5521230000    -0.0140200000 
 O        2.8126320000    -0.5780230000     1.1265180000 
 C        2.9653350000    -0.6744750000    -1.2045850000 
 C        4.4178440000    -0.6504770000    -1.2612420000 
 N        5.5649390000    -0.6163270000    -1.3249860000 
 H        0.4264810000     0.6129910000     0.7347530000 
 H        0.4993460000    -0.9345400000    -0.1185170000 
 H        0.5057030000     0.5908990000    -1.0293650000 
 H        2.4752900000     2.0965340000     0.8330650000 
 H        2.6227880000     2.0871320000    -0.9243970000 
 H        3.9903200000     1.5649910000     0.0775830000 
 H        2.6303220000    -0.0360120000     1.8989560000 
 H        2.5773880000    -0.2827870000    -2.1484520000 
 H        2.6385560000    -1.7140860000    -1.1162360000 
*
