! RI PBE def2-SVP def2-SVP/J NBO PAL2
% maxcore 2000
% output
    # printlevel mini
    print[ P_Basis ] 0
    print[ P_SCFInfo ] 1
    print[ P_SCFIterInfo ] 1
    print[ P_OrbEn ] 0
    print[ P_Cartesian ] 0
end
*xyz 0 1
 C        1.5695390000     1.0554700000    -0.2940310000 
 C        2.5506140000     0.1215490000     0.4015890000 
 C        2.6407480000     0.4222360000     1.8864570000 
 O        1.4047040000     0.1052120000     2.5054770000 
 C        2.1896250000    -1.3384150000     0.1259990000 
 C        3.1113220000    -2.3702050000     0.7533500000 
 N        4.4958180000    -2.1657000000     0.3467730000 
 H        1.8595030000     2.1017710000    -0.1643950000 
 H        0.5626920000     0.9338280000     0.1121580000 
 H        1.5278890000     0.8508740000    -1.3671190000 
 H        3.5559170000     0.3012450000     0.0050130000 
 H        2.8790430000     1.4870010000     2.0200190000 
 H        3.4591940000    -0.1588530000     2.3304280000 
 H        1.4608530000     0.3358370000     3.4345440000 
 H        2.1744880000    -1.4882900000    -0.9614870000 
 H        1.1702910000    -1.5284530000     0.4753890000 
 H        2.7257870000    -3.3718160000     0.5069570000 
 H        3.0643520000    -2.2845280000     1.8432120000 
 H        4.5891120000    -2.2979360000    -0.6538870000 
 H        5.1025200000    -2.8448960000     0.7882640000 
*
