! RI PBE def2-SVP def2-SVP/J NBO PAL2
% maxcore 2000
% output
    # printlevel mini
    print[ P_Basis ] 0
    print[ P_SCFInfo ] 1
    print[ P_SCFIterInfo ] 1
    print[ P_OrbEn ] 0
    print[ P_Cartesian ] 0
end
*xyz 0 1
 C        1.0789790000     0.2663060000    -0.2268280000 
 C        2.4698290000    -0.2383320000     0.1260890000 
 C        2.6080740000    -0.5388090000     1.6154540000 
 O        1.7320730000    -1.5545290000     2.0587900000 
 C        2.8068440000    -1.4793220000    -0.7125870000 
 C        4.2024360000    -1.8704260000    -0.6017510000 
 N        5.3124220000    -2.1546480000    -0.5046610000 
 H        0.8157950000     1.1395850000     0.3757610000 
 H        0.3219570000    -0.5054190000    -0.0591340000 
 H        1.0164720000     0.5583860000    -1.2773700000 
 H        3.2003370000     0.5440220000    -0.1094160000 
 H        2.4613200000     0.3867950000     2.1868490000 
 H        3.6182480000    -0.8973440000     1.8279850000 
 H        0.8487530000    -1.1879590000     2.1396950000 
 H        2.5870910000    -1.2987880000    -1.7686890000 
 H        2.1842700000    -2.3174290000    -0.3847970000 
*
