! RI PBE def2-SVP def2-SVP/J NBO PAL2
% maxcore 2000
% output
    # printlevel mini
    print[ P_Basis ] 0
    print[ P_SCFInfo ] 1
    print[ P_SCFIterInfo ] 1
    print[ P_OrbEn ] 0
    print[ P_Cartesian ] 0
end
*xyz 0 1
 C        1.2565550000     0.2457100000    -0.0084140000 
 C        2.7416940000     0.0394770000     0.1967910000 
 C        3.2986220000    -1.1677070000    -0.5325080000 
 O        2.5789240000    -1.8795050000    -1.2112810000 
 C        4.7277550000    -1.4046660000    -0.3624220000 
 C        5.3032540000    -2.4574940000    -0.9771690000 
 N        6.5984360000    -2.8215670000    -0.9295680000 
 H        0.9071270000     1.1254080000     0.5363930000 
 H        0.6914680000    -0.6217370000     0.3359020000 
 H        1.0241000000     0.3786410000    -1.0660680000 
 H        2.9827910000    -0.0765300000     1.2608460000 
 H        3.3130720000     0.9168230000    -0.1312230000 
 H        5.3055060000    -0.7268650000     0.2584040000 
 H        4.6610590000    -3.0920070000    -1.5823940000 
 H        7.2678170000    -2.2972000000    -0.3965380000 
 H        6.9249310000    -3.6268800000    -1.4268410000 
*
