! RI PBE def2-SVP def2-SVP/J NBO PAL2
% maxcore 2000
% output
    # printlevel mini
    print[ P_Basis ] 0
    print[ P_SCFInfo ] 1
    print[ P_SCFIterInfo ] 1
    print[ P_OrbEn ] 0
    print[ P_Cartesian ] 0
end
*xyz 0 1
 C        1.5480190000    -1.1067490000    -0.5743940000 
 C        2.4702150000     0.0314850000    -0.1957820000 
 C        1.7575880000     1.2105810000     0.3963610000 
 O        0.5654400000     1.2807120000     0.5220720000 
 C        2.6060790000     2.3888750000     0.9047460000 
 C        3.9803340000     2.4329220000     0.4449150000 
 N        5.0665110000     2.4573230000     0.0691590000 
 H        2.1172600000    -1.9318790000    -1.0049360000 
 H        0.8058080000    -0.7816440000    -1.3045720000 
 H        1.0057600000    -1.4788040000     0.2961310000 
 H        3.0418930000     0.3975860000    -1.0581500000 
 H        3.2406460000    -0.2839490000     0.5197300000 
 H        2.5971500000     2.3347970000     1.9986940000 
 H        2.0897090000     3.3120330000     0.6329370000 
*
