! RI PBE def2-SVP def2-SVP/J NBO PAL2
% maxcore 2000
% output
    # printlevel mini
    print[ P_Basis ] 0
    print[ P_SCFInfo ] 1
    print[ P_SCFIterInfo ] 1
    print[ P_OrbEn ] 0
    print[ P_Cartesian ] 0
end
*xyz 0 1
 C        0.7708190000     0.5306180000     0.6151730000 
 C        2.1462530000     0.9346940000     0.1135970000 
 C        3.0097580000    -0.2477430000    -0.2934350000 
 O        2.4300210000    -0.9624310000    -1.3724490000 
 C        4.4570150000     0.1553790000    -0.6048100000 
 C        5.2588310000    -1.0116650000    -1.1643520000 
 N        5.0452160000     0.7494740000     0.5914920000 
 H        0.1613390000     1.4070720000     0.8464960000 
 H        0.8489530000    -0.0675450000     1.5274280000 
 H        0.2365810000    -0.0682380000    -0.1253310000 
 H        2.6851590000     1.5068810000     0.8714690000 
 H        2.0494810000     1.5987310000    -0.7577280000 
 H        3.0367560000    -0.9722250000     0.5327450000 
 H        2.2206100000    -0.3285290000    -2.0652770000 
 H        4.4158520000     0.9505960000    -1.3628680000 
 H        5.3171940000    -1.8196470000    -0.4274280000 
 H        6.2788430000    -0.6952090000    -1.3982800000 
 H        4.8049200000    -1.4206070000    -2.0677500000 
 H        5.9544230000     1.1400600000     0.3764560000 
 H        5.2033660000     0.0275330000     1.2874510000 
*
