! RI PBE def2-SVP def2-SVP/J NBO PAL2
% maxcore 2000
% output
    # printlevel mini
    print[ P_Basis ] 0
    print[ P_SCFInfo ] 1
    print[ P_SCFIterInfo ] 1
    print[ P_OrbEn ] 0
    print[ P_Cartesian ] 0
end
*xyz 0 1
 C        1.6706960000     0.8024980000     0.3499450000 
 C        3.0852000000     0.4018540000    -0.0297300000 
 C        3.1737260000    -1.0203110000    -0.5616220000 
 O        2.3796390000    -1.2229030000    -1.7061480000 
 C        4.6241830000    -1.4598000000    -0.8263220000 
 C        5.2379060000    -0.6641980000    -1.8770080000 
 N        5.6712730000    -0.0172300000    -2.7234640000 
 H        1.6360820000     1.8388820000     0.6909840000 
 H        1.2857990000     0.1726780000     1.1566010000 
 H        0.9941290000     0.7008150000    -0.4999430000 
 H        3.7476580000     0.4921730000     0.8381970000 
 H        3.4831550000     1.0858500000    -0.7895680000 
 H        2.7700150000    -1.7091030000     0.1877150000 
 H        2.6647530000    -0.6062440000    -2.3899550000 
 H        4.6313340000    -2.5069510000    -1.1389240000 
 H        5.2251620000    -1.3744090000     0.0833410000 
*
