! RI PBE def2-SVP def2-SVP/J NBO PAL2
% maxcore 2000
% output
    # printlevel mini
    print[ P_Basis ] 0
    print[ P_SCFInfo ] 1
    print[ P_SCFIterInfo ] 1
    print[ P_OrbEn ] 0
    print[ P_Cartesian ] 0
end
*xyz 0 1
 C        2.9397510000     2.1194650000     0.6218280000 
 C        2.4763600000     0.7119510000     0.2938810000 
 C        2.8834090000    -0.3167600000     1.3393590000 
 O        2.3455670000    -1.5561300000     0.9782980000 
 C        2.5105740000    -2.5587970000     1.9549930000 
 C        4.3536650000    -0.3908330000     1.4657280000 
 N        5.4975160000    -0.4557860000     1.5615240000 
 H        2.6070590000     2.8181570000    -0.1473930000 
 H        4.0289480000     2.1809050000     0.6780840000 
 H        2.5337250000     2.4618220000     1.5775490000 
 H        2.8702030000     0.3864810000    -0.6723100000 
 H        1.3863200000     0.6667420000     0.2278610000 
 H        2.5013370000    -0.0058270000     2.3259140000 
 H        2.0232820000    -3.4545960000     1.5726900000 
 H        2.0390130000    -2.2695360000     2.9032000000 
 H        3.5698000000    -2.7755860000     2.1355250000 
*
