! RI PBE def2-SVP def2-SVP/J NBO PAL2
% maxcore 2000
% output
    # printlevel mini
    print[ P_Basis ] 0
    print[ P_SCFInfo ] 1
    print[ P_SCFIterInfo ] 1
    print[ P_OrbEn ] 0
    print[ P_Cartesian ] 0
end
*xyz 0 1
 C        0.8162970000     0.2667870000     0.1374890000 
 C        2.3207310000     0.1107510000     0.2141180000 
 C        2.9790170000    -0.1300950000    -1.1202760000 
 O        2.3542160000    -0.4122990000    -2.1133860000 
 C        4.4824550000     0.0230590000    -1.1645480000 
 N        5.0468420000    -0.6184250000    -2.3125710000 
 C        6.3379370000    -0.1089730000    -2.7032800000 
 H        0.3887050000     0.3907320000     1.1339810000 
 H        0.3603170000    -0.6064320000    -0.3299420000 
 H        0.5422680000     1.1361030000    -0.4631180000 
 H        2.5941380000    -0.7421790000     0.8493340000 
 H        2.7984510000     0.9785900000     0.6835440000 
 H        4.9177240000    -0.3642630000    -0.2340770000 
 H        4.6604730000     1.1193680000    -1.1386550000 
 H        4.3732850000    -0.5787900000    -3.0679010000 
 H        7.0786930000    -0.3305500000    -1.9289620000 
 H        6.3555820000     0.9813380000    -2.8743800000 
 H        6.6661470000    -0.6039310000    -3.6189790000 
*
