! RI PBE def2-SVP def2-SVP/J NBO PAL2
% maxcore 2000
% output
    # printlevel mini
    print[ P_Basis ] 0
    print[ P_SCFInfo ] 1
    print[ P_SCFIterInfo ] 1
    print[ P_OrbEn ] 0
    print[ P_Cartesian ] 0
end
*xyz 0 1
 C        0.6248790000    -0.1077870000     1.5460920000 
 C        1.9115620000     0.2777950000     0.9005810000 
 C        2.8095390000     1.0995410000     1.4342140000 
 O        1.9938280000    -0.3595140000    -0.3140190000 
 C        2.9986170000    -0.2632710000    -1.2040070000 
 N        4.0370500000     0.4395300000    -1.0862550000 
 N        4.9811690000     0.3360990000    -2.0853680000 
 H        0.5235660000     0.3780850000     2.5151210000 
 H        0.5751130000    -1.1910310000     1.6861290000 
 H       -0.2218780000     0.1782460000     0.9161870000 
 H        2.5909550000     1.5174460000     2.4082740000 
 H        3.7321600000     1.3562590000     0.9430130000 
 H        2.7834570000    -0.9029720000    -2.0637870000 
 H        5.4926240000     1.2044880000    -2.1348620000 
 H        4.5875780000     0.1169640000    -2.9972240000 
*
