! RI PBE def2-SVP def2-SVP/J NBO PAL2
% maxcore 2000
% output
    # printlevel mini
    print[ P_Basis ] 0
    print[ P_SCFInfo ] 1
    print[ P_SCFIterInfo ] 1
    print[ P_OrbEn ] 0
    print[ P_Cartesian ] 0
end
*xyz 0 1
 C        1.0371560000     0.0441410000     0.0594150000 
 C        2.5357630000     0.0534850000     0.0432650000 
 C        3.2116590000    -1.1447260000    -0.3663750000 
 O        2.6747070000    -2.2016700000    -0.6421330000 
 C        3.2391190000     1.1841330000     0.3726020000 
 N        2.6209910000     2.3922720000     0.5373500000 
 N        4.5943820000     1.2503790000     0.5979190000 
 H        0.6980730000    -0.9855100000    -0.0579800000 
 H        0.5977560000     0.6228380000    -0.7617030000 
 H        0.6277410000     0.4277290000     1.0005320000 
 H        4.3200900000    -1.0778480000    -0.4548920000 
 H        1.6163640000     2.3865280000     0.5031470000 
 H        3.0153870000     3.0091340000     1.2290060000 
 H        5.1056360000     0.3984900000     0.4422660000 
 H        5.0503770000     2.0640150000     0.2132910000 
*
