! RI PBE def2-SVP def2-SVP/J NBO PAL2
% maxcore 2000
% output
    # printlevel mini
    print[ P_Basis ] 0
    print[ P_SCFInfo ] 1
    print[ P_SCFIterInfo ] 1
    print[ P_OrbEn ] 0
    print[ P_Cartesian ] 0
end
*xyz 0 1
 C        1.0154570000    -0.0121960000     0.0734030000 
 C        2.5324810000    -0.0991300000     0.1200480000 
 C        3.1859910000     1.2636370000     0.2232810000 
 O        2.5850100000     2.2972510000     0.3156870000 
 C        3.0644740000    -0.9724670000     1.2484980000 
 N        2.8001600000    -0.4820390000     2.4955350000 
 N        3.7466710000    -2.0377910000     1.1140000000 
 H        0.6968970000     0.5518410000    -0.8041730000 
 H        0.6124900000     0.5097880000     0.9428740000 
 H        0.5751410000    -1.0093750000     0.0294590000 
 H        2.9096400000    -0.5449530000    -0.8077940000 
 H        4.2958800000     1.2447990000     0.2119940000 
 H        2.0516500000     0.1749390000     2.6219420000 
 H        3.0031000000    -1.0947380000     3.2675820000 
 H        3.9072680000    -2.2450640000     0.1343530000 
*
