! RI PBE def2-SVP def2-SVP/J NBO PAL2
% maxcore 2000
% output
    # printlevel mini
    print[ P_Basis ] 0
    print[ P_SCFInfo ] 1
    print[ P_SCFIterInfo ] 1
    print[ P_OrbEn ] 0
    print[ P_Cartesian ] 0
end
*xyz 0 1
 C        0.8264260000     0.1488840000     0.0864440000 
 C        2.3486880000     0.1329670000     0.0736400000 
 C        2.9236780000     0.7955930000     1.3212300000 
 O        2.7063550000    -1.2368280000     0.0594170000 
 C        2.8642900000     0.8109720000    -1.2068370000 
 N        2.7871410000     2.1809500000    -1.2216500000 
 N        3.3668140000     0.1939270000    -2.1962560000 
 H        0.4644480000    -0.3538420000     0.9851740000 
 H        0.4416120000    -0.3786480000    -0.7875390000 
 H        0.4339330000     1.1673140000     0.0783030000 
 H        2.5887130000     0.2465140000     2.2035760000 
 H        2.6091820000     1.8350030000     1.4234350000 
 H        4.0169850000     0.7876850000     1.2943940000 
 H        3.6563150000    -1.3009230000     0.1995260000 
 H        2.0956570000     2.6300910000    -0.6486050000 
 H        2.9291770000     2.5949100000    -2.1290700000 
 H        3.3644760000    -0.8044600000    -2.0045730000 
*
