! RI PBE def2-SVP def2-SVP/J NBO PAL2
% maxcore 2000
% output
    # printlevel mini
    print[ P_Basis ] 0
    print[ P_SCFInfo ] 1
    print[ P_SCFIterInfo ] 1
    print[ P_OrbEn ] 0
    print[ P_Cartesian ] 0
end
*xyz 0 1
 C        0.9403070000     0.5223110000    -0.5001650000 
 C        2.3196460000     0.3809470000     0.1129080000 
 C        2.9206260000     1.7116450000     0.5051780000 
 O        2.2575240000    -0.3971800000     1.3083220000 
 C        2.1959530000    -1.7471380000     1.2125950000 
 N        2.0213940000    -2.2724120000     2.4643460000 
 N        2.2535580000    -2.4900960000     0.1855870000 
 H        0.9958550000     1.0973390000    -1.4272990000 
 H        0.2755330000     1.0458510000     0.1908760000 
 H        0.5027050000    -0.4513910000    -0.7259050000 
 H        2.9959370000    -0.1181040000    -0.5921920000 
 H        2.2850290000     2.2152820000     1.2370520000 
 H        3.0126020000     2.3553560000    -0.3717790000 
 H        3.9113470000     1.5761570000     0.9416970000 
 H        2.3385050000    -1.7070510000     3.2324610000 
 H        2.2099030000    -3.2576510000     2.5272450000 
 H        2.3193950000    -1.9661620000    -0.6770480000 
*
