! RI PBE def2-SVP def2-SVP/J NBO PAL2
% maxcore 2000
% output
    # printlevel mini
    print[ P_Basis ] 0
    print[ P_SCFInfo ] 1
    print[ P_SCFIterInfo ] 1
    print[ P_OrbEn ] 0
    print[ P_Cartesian ] 0
end
*xyz 0 1
 C        1.3519720000    -0.1817910000    -0.1296510000 
 C        2.8484080000    -0.2593380000     0.0903250000 
 C        3.4448650000     1.0421900000     0.5523270000 
 O        2.7809820000     2.0356330000     0.7240490000 
 C        4.9483340000     1.0943660000     0.8097150000 
 N        5.3504930000     2.3142530000     1.2172370000 
 N        5.7564370000     0.1166990000     0.6656070000 
 H        0.9644330000    -1.1457810000    -0.4630730000 
 H        1.1052960000     0.5683520000    -0.8822170000 
 H        0.8352740000     0.0988190000     0.7891520000 
 H        3.3677950000    -0.5607420000    -0.8272280000 
 H        3.0997180000    -1.0268880000     0.8320930000 
 H        4.6661560000     3.0425930000     1.3113560000 
 H        6.3191960000     2.4762420000     1.4191760000 
 H        5.2700410000    -0.7158960000     0.3532330000 
*
