! RI PBE def2-SVP def2-SVP/J NBO PAL2
% maxcore 2000
% output
    # printlevel mini
    print[ P_Basis ] 0
    print[ P_SCFInfo ] 1
    print[ P_SCFIterInfo ] 1
    print[ P_OrbEn ] 0
    print[ P_Cartesian ] 0
end
*xyz 0 1
 C        1.2096240000     0.1575670000    -0.1613900000 
 C        2.6557190000     0.1411750000     0.2894590000 
 C        3.0580080000     1.4345060000     0.9599070000 
 O        4.1532530000     1.6699890000     1.3989980000 
 C        2.9680270000    -1.0934890000     1.1554670000 
 N        4.2295290000    -1.1450900000     1.6326990000 
 O        2.1401930000    -1.9587130000     1.3321580000 
 H        1.0207700000     1.0127490000    -0.8146820000 
 H        0.5353490000     0.2170790000     0.6949140000 
 H        0.9650450000    -0.7552700000    -0.7015280000 
 H        3.3246190000     0.0565960000    -0.5783560000 
 H        2.2560680000     2.1996680000     1.0202590000 
 H        4.7912350000    -0.3068060000     1.6311990000 
 H        4.4488640000    -1.8869810000     2.2757860000 
*
