! RI PBE def2-SVP def2-SVP/J NBO PAL2
% maxcore 2000
% output
    # printlevel mini
    print[ P_Basis ] 0
    print[ P_SCFInfo ] 1
    print[ P_SCFIterInfo ] 1
    print[ P_OrbEn ] 0
    print[ P_Cartesian ] 0
end
*xyz 0 1
 C        0.9738000000     0.0925690000     0.0320570000 
 C        2.5002910000     0.1199150000    -0.0288680000 
 C        2.9872610000     0.8575740000    -1.2638630000 
 O        3.0167170000     0.7256860000     1.1544530000 
 C        3.0099070000    -1.2922990000     0.0395690000 
 N        3.4514330000    -1.8792840000    -0.9868460000 
 O        3.8217350000    -3.1840910000    -0.7172290000 
 H        0.5830360000     1.1145260000     0.0669430000 
 H        0.6356930000    -0.4345300000     0.9263940000 
 H        0.5560460000    -0.4018330000    -0.8470330000 
 H        2.5893940000     1.8767200000    -1.2640930000 
 H        2.6596770000     0.3593880000    -2.1767190000 
 H        4.0764000000     0.9041960000    -1.2695010000 
 H        2.6738770000     1.6227990000     1.1992620000 
 H        2.9587920000    -1.7928290000     1.0082480000 
 H        4.1516320000    -3.4956860000    -1.5644750000 
*
