! RI PBE def2-SVP def2-SVP/J NBO PAL2
% maxcore 2000
% output
    # printlevel mini
    print[ P_Basis ] 0
    print[ P_SCFInfo ] 1
    print[ P_SCFIterInfo ] 1
    print[ P_OrbEn ] 0
    print[ P_Cartesian ] 0
end
*xyz 0 1
 C        0.9101910000    -0.0929820000    -0.2723630000 
 C        2.4299080000     0.0510170000    -0.2464340000 
 C        3.0651380000    -0.5280510000    -1.5082140000 
 O        2.7544770000     1.4127430000    -0.1598520000 
 C        3.0113760000    -0.6259950000     1.0058410000 
 N        2.8214370000    -1.9521240000     1.1416650000 
 O        3.6171200000     0.0365080000     1.8287330000 
 H        0.5198590000     0.4876510000    -1.1102020000 
 H        0.4755710000     0.3014590000     0.6477550000 
 H        0.5891720000    -1.1300520000    -0.3969660000 
 H        2.7141830000     0.0444540000    -2.3687580000 
 H        2.8030200000    -1.5770400000    -1.6663780000 
 H        4.1519640000    -0.4405710000    -1.4607100000 
 H        3.2499230000     1.5014570000     0.6726680000 
 H        2.3219970000    -2.4929960000     0.4614910000 
 H        3.1948750000    -2.4107890000     1.9544350000 
*
