! RI PBE def2-SVP def2-SVP/J NBO PAL2
% maxcore 2000
% output
    # printlevel mini
    print[ P_Basis ] 0
    print[ P_SCFInfo ] 1
    print[ P_SCFIterInfo ] 1
    print[ P_OrbEn ] 0
    print[ P_Cartesian ] 0
end
*xyz 0 1
 C        0.9571930000    -0.0828300000     0.2421590000 
 C        2.4552240000    -0.2967570000     0.1952650000 
 C        2.8495540000    -1.7453890000     0.3588410000 
 O        2.9756360000     0.1121040000    -1.0851880000 
 C        3.1936740000     1.4078020000    -1.2876930000 
 N        2.9641020000     2.3028540000    -0.4210010000 
 O        3.3210320000     3.5592040000    -0.9177280000 
 H        0.5674700000    -0.3965580000     1.2133030000 
 H        0.4642640000    -0.6746750000    -0.5330940000 
 H        0.7093720000     0.9688290000     0.0988080000 
 H        2.9391640000     0.3194580000     0.9591460000 
 H        2.4057700000    -2.3552620000    -0.4317130000 
 H        2.4977510000    -2.1217390000     1.3215170000 
 H        3.9337640000    -1.8612530000     0.3174410000 
 H        3.5980090000     1.6228600000    -2.2752000000 
 H        3.0888220000     4.1430630000    -0.1920620000 
*
