! RI PBE def2-SVP def2-SVP/J NBO PAL2
% maxcore 2000
% output
    # printlevel mini
    print[ P_Basis ] 0
    print[ P_SCFInfo ] 1
    print[ P_SCFIterInfo ] 1
    print[ P_OrbEn ] 0
    print[ P_Cartesian ] 0
end
*xyz 0 1
 C        0.8868140000     0.0229740000     0.3915780000 
 C        2.3922810000    -0.0141780000     0.2430890000 
 C        3.0911260000    -0.6422380000     1.4258200000 
 O        2.7485630000    -0.8085990000    -0.9046650000 
 C        2.7233090000    -0.1835650000    -2.0955180000 
 N        3.0021150000    -1.0640690000    -3.0904350000 
 O        2.4722710000     0.9849170000    -2.2627440000 
 H        0.6114200000     0.6201870000     1.2639410000 
 H        0.4898340000    -0.9863740000     0.5265930000 
 H        0.4254920000     0.4730720000    -0.4881510000 
 H        2.7664520000     0.9974830000     0.0691220000 
 H        2.7468390000    -1.6679540000     1.5791680000 
 H        2.8774170000    -0.0706610000     2.3312310000 
 H        4.1720550000    -0.6586640000     1.2762910000 
 H        3.3648070000    -1.9714320000    -2.8629640000 
 H        3.1750820000    -0.6814000000    -4.0010670000 
*
