! RI PBE def2-SVP def2-SVP/J NBO PAL2
% maxcore 2000
% output
    # printlevel mini
    print[ P_Basis ] 0
    print[ P_SCFInfo ] 1
    print[ P_SCFIterInfo ] 1
    print[ P_OrbEn ] 0
    print[ P_Cartesian ] 0
end
*xyz 0 1
 C        0.9972390000    -0.3629270000     0.3689210000 
 C        2.3599250000     0.1530310000    -0.0426830000 
 C        2.2881880000     1.3171820000    -0.9948820000 
 O        1.2441690000     1.7864340000    -1.3868060000 
 C        3.5551360000     1.9208590000    -1.4784050000 
 N        4.6673210000     1.4515330000    -1.0857380000 
 O        5.7320560000     2.1162130000    -1.6206630000 
 H        1.0990220000    -1.2039990000     1.0571380000 
 H        0.4238740000    -0.6949990000    -0.4978860000 
 H        0.4137800000     0.4162570000     0.8616940000 
 H        2.9628260000    -0.6280370000    -0.5186040000 
 H        2.9528900000     0.4683940000     0.8227510000 
 H        3.4812590000     2.7623250000    -2.1670360000 
 H        6.4952050000     1.6650430000    -1.2456010000 
*
