! RI PBE def2-SVP def2-SVP/J NBO PAL2
% maxcore 2000
% output
    # printlevel mini
    print[ P_Basis ] 0
    print[ P_SCFInfo ] 1
    print[ P_SCFIterInfo ] 1
    print[ P_OrbEn ] 0
    print[ P_Cartesian ] 0
end
*xyz 0 1
 C        2.9505920000    -1.5567840000     0.1023000000 
 C        2.6780190000    -0.0630310000     0.0645250000 
 C        3.1252290000     0.6270590000    -1.2231940000 
 O        2.6171530000     1.9335410000    -1.2522970000 
 C        4.6119830000     0.6058860000    -1.3919610000 
 N        5.2160490000     1.7022380000    -1.5609460000 
 O        6.5785840000     1.5535630000    -1.7103290000 
 H        2.5270320000    -2.0034950000     1.0038540000 
 H        4.0193800000    -1.7845830000     0.1024460000 
 H        2.5022910000    -2.0646810000    -0.7566070000 
 H        3.1523430000     0.4438730000     0.9105500000 
 H        1.6041900000     0.1237290000     0.1516410000 
 H        2.7047960000     0.0543410000    -2.0689970000 
 H        3.3558710000     2.5199870000    -1.4618280000 
 H        5.1484230000    -0.3425970000    -1.3808290000 
 H        6.8897660000     2.4556540000    -1.8274300000 
*
