! RI PBE def2-SVP def2-SVP/J NBO PAL2
% maxcore 2000
% output
    # printlevel mini
    print[ P_Basis ] 0
    print[ P_SCFInfo ] 1
    print[ P_SCFIterInfo ] 1
    print[ P_OrbEn ] 0
    print[ P_Cartesian ] 0
end
*xyz 0 1
 C        0.4047110000     1.4249670000     0.1399520000 
 C        1.4151540000     0.2986260000     0.0040880000 
 C        2.7391080000     0.7989570000    -0.5175470000 
 O        3.6267310000    -0.3136450000    -0.6153100000 
 C        4.8534780000    -0.0591290000    -1.0627820000 
 N        5.2373870000     1.1021430000    -1.3913020000 
 O        6.5645740000     1.0715610000    -1.8224990000 
 H       -0.5489870000     1.0522600000     0.5178570000 
 H        0.2132280000     1.9075020000    -0.8223480000 
 H        0.7563010000     2.1951490000     0.8318560000 
 H        1.0352050000    -0.4718580000    -0.6735610000 
 H        1.5754450000    -0.1857030000     0.9720490000 
 H        3.1791710000     1.5497490000     0.1478320000 
 H        2.6366790000     1.2621940000    -1.5049610000 
 H        5.4846590000    -0.9437200000    -1.1163360000 
 H        6.7340580000     1.9914390000    -2.0384770000 
*
