! RI PBE def2-SVP def2-SVP/J NBO PAL2
% maxcore 2000
% output
    # printlevel mini
    print[ P_Basis ] 0
    print[ P_SCFInfo ] 1
    print[ P_SCFIterInfo ] 1
    print[ P_OrbEn ] 0
    print[ P_Cartesian ] 0
end
*xyz 0 1
 C        0.8414920000     0.0406020000    -0.3000500000 
 C        2.3223190000    -0.0900340000     0.0317750000 
 C        3.1068340000     0.7531500000    -0.9480250000 
 O        3.5869890000     0.3354470000    -1.9642910000 
 N        2.5784290000     0.4004030000     1.3711120000 
 C        2.3598210000    -0.5462690000     2.4441750000 
 C        3.7320360000    -0.1603710000     2.0489540000 
 H        0.6391860000    -0.3325890000    -1.3050640000 
 H        0.5254770000     1.0843680000    -0.2372820000 
 H        0.2476970000    -0.5354720000     0.4127710000 
 H        2.6408100000    -1.1364710000    -0.1024460000 
 H        3.1858060000     1.8248100000    -0.6625790000 
 H        2.0321260000    -1.5480040000     2.1761560000 
 H        1.9150590000    -0.1439980000     3.3475200000 
 H        4.3210660000    -0.9023300000     1.5155410000 
 H        4.3035610000     0.5317680000     2.6567120000 
*
