! RI PBE def2-SVP def2-SVP/J NBO PAL2
% maxcore 2000
% output
    # printlevel mini
    print[ P_Basis ] 0
    print[ P_SCFInfo ] 1
    print[ P_SCFIterInfo ] 1
    print[ P_OrbEn ] 0
    print[ P_Cartesian ] 0
end
*xyz 0 1
 C        0.4522200000     0.5005640000     0.5164160000 
 C        1.7768200000    -0.0760550000     0.0546570000 
 C        2.9139230000     0.8653820000     0.4204150000 
 O        4.1853990000     0.3943210000     0.0386890000 
 N        2.0032530000    -1.3651360000     0.6934410000 
 C        1.2623890000    -2.4815840000     0.1440270000 
 C        2.7154700000    -2.3622930000    -0.0883920000 
 H        0.2775050000     1.4804730000     0.0662960000 
 H        0.4438570000     0.6112360000     1.6034140000 
 H       -0.3786320000    -0.1506110000     0.2379220000 
 H        1.7635700000    -0.1911290000    -1.0441130000 
 H        2.8733150000     1.0586160000     1.5015500000 
 H        2.7713480000     1.8185090000    -0.0950850000 
 H        4.3715530000    -0.3877680000     0.5647360000 
 H        0.6120030000    -2.2841610000    -0.7051730000 
 H        0.8750000000    -3.1955050000     0.8623730000 
 H        3.0396340000    -2.0816260000    -1.0866050000 
 H        3.4082830000    -2.9903340000     0.4623230000 
*
