! RI PBE def2-SVP def2-SVP/J NBO PAL2
% maxcore 2000
% output
    # printlevel mini
    print[ P_Basis ] 0
    print[ P_SCFInfo ] 1
    print[ P_SCFIterInfo ] 1
    print[ P_OrbEn ] 0
    print[ P_Cartesian ] 0
end
*xyz 0 1
 C        1.1339640000     0.8797030000     0.0917320000 
 C        2.5608160000     0.3744210000     0.0465220000 
 C        2.7653930000    -0.7363590000    -0.9561540000 
 O        1.8956270000    -1.1546200000    -1.6809030000 
 N        4.0331990000    -1.3053080000    -0.9229550000 
 C        4.6961210000    -1.7674040000    -2.1058350000 
 C        5.2430480000    -0.6269890000    -1.3174580000 
 H        1.0338260000     1.6824380000     0.8248060000 
 H        0.4452580000     0.0779270000     0.3614040000 
 H        0.8214120000     1.2594000000    -0.8818910000 
 H        2.8877490000     0.0022760000     1.0227440000 
 H        3.2569190000     1.1842210000    -0.2017530000 
 H        4.2156230000    -1.5465630000    -3.0535450000 
 H        5.1660610000    -2.7421300000    -2.0357010000 
 H        5.1488390000     0.3644870000    -1.7515590000 
 H        6.1046550000    -0.7693110000    -0.6736540000 
*
