! RI PBE def2-SVP def2-SVP/J NBO PAL2
% maxcore 2000
% output
    # printlevel mini
    print[ P_Basis ] 0
    print[ P_SCFInfo ] 1
    print[ P_SCFIterInfo ] 1
    print[ P_OrbEn ] 0
    print[ P_Cartesian ] 0
end
*xyz 0 1
 C        1.5044050000     1.0178460000     0.4119630000 
 C        2.1831730000    -0.3370890000     0.2634860000 
 C        2.5125070000    -0.9530130000     1.6196210000 
 O        3.0804980000    -2.2255790000     1.4671640000 
 N        1.4623520000    -1.3302210000    -0.5369060000 
 C        0.0771060000    -1.5238230000    -0.1652180000 
 C        1.6040610000    -1.1370630000    -1.9611810000 
 H        2.1694290000     1.7165670000     0.9252320000 
 H        0.5849340000     0.9471850000     0.9982520000 
 H        1.2553870000     1.4540100000    -0.5581720000 
 H        3.1390700000    -0.1946180000    -0.2530770000 
 H        1.6060530000    -0.9960980000     2.2449050000 
 H        3.2300500000    -0.3140760000     2.1427970000 
 H        2.6560630000    -2.5766880000     0.6683520000 
 H       -0.0123150000    -1.6832260000     0.9106400000 
 H       -0.3081260000    -2.4154910000    -0.6656490000 
 H       -0.5722110000    -0.6780060000    -0.4429560000 
 H        2.6616290000    -1.0739300000    -2.2255440000 
 H        1.1003850000    -0.2292360000    -2.3346430000 
 H        1.1739480000    -1.9914610000    -2.4899760000 
*
