! RI PBE def2-SVP def2-SVP/J NBO PAL2
% maxcore 2000
% output
    # printlevel mini
    print[ P_Basis ] 0
    print[ P_SCFInfo ] 1
    print[ P_SCFIterInfo ] 1
    print[ P_OrbEn ] 0
    print[ P_Cartesian ] 0
end
*xyz 0 1
 C        1.1092620000    -0.1324810000     0.1355990000 
 C        2.6057940000    -0.2253910000    -0.0842050000 
 C        3.3670160000     0.7930840000     0.7483810000 
 O        2.7776100000     1.5626140000     1.4857640000 
 N        4.7268940000     0.8063290000     0.6368940000 
 C        5.5018340000    -0.0647210000    -0.2056980000 
 C        5.4887730000     1.7557390000     1.4097200000 
 H        0.5891350000    -0.8744190000    -0.4741190000 
 H        0.7367570000     0.8579310000    -0.1272930000 
 H        0.8570670000    -0.3028500000     1.1825750000 
 H        2.8443860000    -0.0727610000    -1.1424550000 
 H        2.9643560000    -1.2304110000     0.1638040000 
 H        4.8684630000    -0.7525940000    -0.7578000000 
 H        6.2063220000    -0.6546710000     0.3924510000 
 H        6.0861380000     0.5165020000    -0.9288170000 
 H        4.8009800000     2.3536190000     2.0022870000 
 H        6.0675770000     2.4125040000     0.7510690000 
 H        6.1877350000     1.2378880000     2.0756440000 
*
