! RI PBE def2-SVP def2-SVP/J NBO PAL2
% maxcore 2000
% output
    # printlevel mini
    print[ P_Basis ] 0
    print[ P_SCFInfo ] 1
    print[ P_SCFIterInfo ] 1
    print[ P_OrbEn ] 0
    print[ P_Cartesian ] 0
end
*xyz 0 1
 C        0.8279340000    -0.1545710000    -0.0984480000 
 C        2.3298090000    -0.0275180000     0.0941930000 
 C        3.0072900000     0.5213720000    -1.1383570000 
 O        4.3971590000     0.6059790000    -0.8713100000 
 N        5.0525700000     1.1037710000    -1.9759080000 
 C        6.3013310000     1.1978060000    -1.7840690000 
 C        7.1839280000     1.7148070000    -2.8595960000 
 H        0.3488150000    -0.5521040000     0.7982560000 
 H        0.5882350000    -0.8263300000    -0.9272390000 
 H        0.3709780000     0.8147400000    -0.3157900000 
 H        2.7647830000    -1.0028430000     0.3333600000 
 H        2.5486730000     0.6295740000     0.9415370000 
 H        2.6211500000     1.5167950000    -1.3887660000 
 H        2.8395530000    -0.1320120000    -2.0030050000 
 H        6.7321400000     0.8984050000    -0.8258930000 
 H        6.5984780000     1.9661690000    -3.7437260000 
 H        7.9387990000     0.9708320000    -3.1319310000 
 H        7.7221740000     2.6063400000    -2.5235070000 
*
