! RI PBE def2-SVP def2-SVP/J NBO PAL2
% maxcore 2000
% output
    # printlevel mini
    print[ P_Basis ] 0
    print[ P_SCFInfo ] 1
    print[ P_SCFIterInfo ] 1
    print[ P_OrbEn ] 0
    print[ P_Cartesian ] 0
end
*xyz 0 1
 C        0.5390150000    -0.8484200000    -0.0342730000 
 C        1.9467270000    -0.9709810000    -0.5681080000 
 C        2.0478470000    -1.9053390000    -1.7542140000 
 O        2.3316260000     0.3672740000    -0.9260970000 
 N        3.6903050000     0.4384030000    -1.1855470000 
 C        4.4025840000     1.2505860000    -0.3168100000 
 N        4.0571150000     1.6949040000     0.8123360000 
 H        0.1740050000    -1.8260770000     0.2853610000 
 H       -0.1314530000    -0.4678720000    -0.8085070000 
 H        0.5015630000    -0.1693000000     0.8190590000 
 H        2.6224760000    -1.3093440000     0.2265300000 
 H        1.3810420000    -1.5786530000    -2.5565850000 
 H        1.7632530000    -2.9187210000    -1.4622240000 
 H        3.0700340000    -1.9426520000    -2.1348870000 
 H        3.8462370000     0.6368050000    -2.1663180000 
 H        5.4070640000     1.4441540000    -0.7021170000 
 H        3.0869580000     1.4437340000     1.0044000000 
*
