! RI PBE def2-SVP def2-SVP/J NBO PAL2
% maxcore 2000
% output
    # printlevel mini
    print[ P_Basis ] 0
    print[ P_SCFInfo ] 1
    print[ P_SCFIterInfo ] 1
    print[ P_OrbEn ] 0
    print[ P_Cartesian ] 0
end
*xyz 0 1
 C        1.0040380000     0.0366920000     0.0329110000 
 C        2.5131080000     0.0000690000    -0.0983710000 
 C        3.1457000000     1.3371550000     0.2083460000 
 O        2.5090930000     2.3153560000     0.5211360000 
 N        4.5235110000     1.4272510000     0.1212500000 
 C        5.4329330000     0.4447140000    -0.2149420000 
 N        6.6903100000     0.5545630000    -0.2871380000 
 H        0.5811380000    -0.9431900000    -0.1951210000 
 H        0.5700110000     0.7692080000    -0.6480920000 
 H        0.7062090000     0.3167390000     1.0436500000 
 H        2.8083150000    -0.3001470000    -1.1098220000 
 H        2.9438380000    -0.7503920000     0.5736330000 
 H        4.8783830000     2.3491500000     0.3391280000 
 H        4.9799320000    -0.5196210000    -0.4362500000 
 H        7.0087810000     1.4974530000    -0.0607290000 
*
