! RI PBE def2-SVP def2-SVP/J NBO PAL2
% maxcore 2000
% output
    # printlevel mini
    print[ P_Basis ] 0
    print[ P_SCFInfo ] 1
    print[ P_SCFIterInfo ] 1
    print[ P_OrbEn ] 0
    print[ P_Cartesian ] 0
end
*xyz 0 1
 C        1.0380420000     0.3721140000    -0.1234160000 
 C        2.5251120000     0.1611110000     0.1083650000 
 C        2.8315390000    -1.2640110000     0.4996950000 
 O        4.2383090000    -1.3676680000     0.6982080000 
 N        4.5798860000    -2.6726270000     1.0171110000 
 C        5.4251530000    -3.2888280000     0.1084090000 
 N        5.6943480000    -2.9489290000    -1.0765350000 
 H        0.8291910000     1.4058020000    -0.4042800000 
 H        0.4585240000     0.1502370000     0.7767600000 
 H        0.6648890000    -0.2706300000    -0.9251090000 
 H        2.8852960000     0.8302370000     0.8956260000 
 H        3.0878450000     0.4097060000    -0.7965210000 
 H        2.5200130000    -1.9662180000    -0.2823940000 
 H        2.3099830000    -1.5367600000     1.4257790000 
 H        4.8905170000    -2.7201870000     1.9803580000 
 H        5.8314850000    -4.2151230000     0.5227110000 
 H        5.2549580000    -2.0537460000    -1.2924670000 
*
