! RI PBE def2-SVP def2-SVP/J NBO PAL2
% maxcore 2000
% output
    # printlevel mini
    print[ P_Basis ] 0
    print[ P_SCFInfo ] 1
    print[ P_SCFIterInfo ] 1
    print[ P_OrbEn ] 0
    print[ P_Cartesian ] 0
end
*xyz 0 1
 C        0.7314950000     0.0282540000    -0.5852400000 
 C        1.9820860000    -0.1164700000    -0.1691400000 
 C        3.0764730000     0.6577630000    -0.8038490000 
 O        2.9132580000     1.4436150000    -1.7064490000 
 N        4.3298620000     0.4033150000    -0.2645070000 
 C        5.4950370000     1.0051140000    -0.6918390000 
 O        6.5649970000     0.7606960000    -0.2019510000 
 H       -0.0846010000    -0.5256950000    -0.1381250000 
 H        0.5080360000     0.7161120000    -1.3934480000 
 H        2.2313600000    -0.7987770000     0.6381740000 
 H        4.4274930000    -0.2599470000     0.4902020000 
 H        5.3281030000     1.7152300000    -1.5131260000 
*
