! RI PBE def2-SVP def2-SVP/J NBO PAL2
% maxcore 2000
% output
    # printlevel mini
    print[ P_Basis ] 0
    print[ P_SCFInfo ] 1
    print[ P_SCFIterInfo ] 1
    print[ P_OrbEn ] 0
    print[ P_Cartesian ] 0
end
*xyz 0 1
 C        2.4124470000     1.5618770000    -1.7946510000 
 C        1.7640810000     1.1720080000    -0.7080080000 
 C        2.3129890000     0.3117470000     0.3733390000 
 O        3.6571820000    -0.0378660000     0.0777220000 
 N        4.1721850000    -0.8456350000     1.0667900000 
 C        5.2150900000    -0.3570300000     1.7959930000 
 O        5.9355080000    -1.0460890000     2.4717060000 
 H        1.9296810000     2.1920810000    -2.5316040000 
 H        3.4377680000     1.2675910000    -1.9818300000 
 H        0.7350150000     1.4828770000    -0.5453030000 
 H        1.7078890000    -0.5999420000     0.4758370000 
 H        2.2719020000     0.8352060000     1.3377720000 
 H        4.1766710000    -1.8298470000     0.8289510000 
 H        5.2873830000     0.7426030000     1.7182760000 
*
