! RI PBE def2-SVP def2-SVP/J NBO PAL2
% maxcore 2000
% output
    # printlevel mini
    print[ P_Basis ] 0
    print[ P_SCFInfo ] 1
    print[ P_SCFIterInfo ] 1
    print[ P_OrbEn ] 0
    print[ P_Cartesian ] 0
end
*xyz 0 1
 C        0.8566990000     0.0347370000     0.0141250000 
 C        2.3205780000    -0.1605700000     0.3284490000 
 C        2.5790670000    -1.3436140000     1.2353310000 
 O        2.9560420000    -0.3330230000    -0.9523490000 
 N        4.3280790000    -0.3174200000    -0.8460850000 
 C        4.9912160000     0.7227840000    -1.4232670000 
 O        6.1738110000     0.7155180000    -1.6547560000 
 H        0.2976160000     0.2136860000     0.9341840000 
 H        0.4471100000    -0.8553280000    -0.4691310000 
 H        0.7123760000     0.8871250000    -0.6514210000 
 H        2.7331250000     0.7495690000     0.7812590000 
 H        2.1881890000    -2.2613270000     0.7882700000 
 H        2.0856040000    -1.1934180000     2.1979780000 
 H        3.6462680000    -1.4690620000     1.4276990000 
 H        4.7585800000    -1.2321780000    -0.8860690000 
 H        4.3194410000     1.5789000000    -1.6145260000 
*
