! RI PBE def2-SVP def2-SVP/J NBO PAL2
% maxcore 2000
% output
    # printlevel mini
    print[ P_Basis ] 0
    print[ P_SCFInfo ] 1
    print[ P_SCFIterInfo ] 1
    print[ P_OrbEn ] 0
    print[ P_Cartesian ] 0
end
*xyz 0 1
 C        1.3348000000    -0.5563800000     0.9928590000 
 C        2.8193820000    -0.3048240000     0.8115980000 
 C        3.4327900000    -1.2583010000    -0.1869760000 
 O        2.7721860000    -2.0408160000    -0.8679310000 
 N        4.7696720000    -1.2572950000    -0.3262950000 
 C        5.7605550000    -0.3522240000     0.1584490000 
 O        5.2522410000    -2.1048670000    -1.3040610000 
 H        0.9149100000     0.1567020000     1.7048090000 
 H        1.1513930000    -1.5653350000     1.3640160000 
 H        0.8044210000    -0.4579670000     0.0457590000 
 H        3.3425780000    -0.3945630000     1.7685350000 
 H        2.9912240000     0.7202920000     0.4642070000 
 H        5.3297900000     0.2646250000     0.9434500000 
 H        6.1265180000     0.2921220000    -0.6476570000 
 H        6.6040520000    -0.9118840000     0.5699800000 
 H        4.4107680000    -2.5153740000    -1.6036420000 
*
