! RI PBE def2-SVP def2-SVP/J NBO PAL2
% maxcore 2000
% output
    # printlevel mini
    print[ P_Basis ] 0
    print[ P_SCFInfo ] 1
    print[ P_SCFIterInfo ] 1
    print[ P_OrbEn ] 0
    print[ P_Cartesian ] 0
end
*xyz 0 1
 C        0.8839430000     0.2684340000     0.2368660000 
 C        2.3720810000     0.0653530000     0.0471310000 
 C        2.6979160000    -1.1628760000    -0.7684370000 
 O        1.8712230000    -1.9099840000    -1.2267400000 
 N        4.0596130000    -1.3683500000    -0.9560390000 
 C        4.5989870000    -2.4196270000    -1.6655510000 
 O        5.7837740000    -2.5659680000    -1.8072860000 
 H        0.6943750000     1.1644400000     0.8300230000 
 H        0.4355330000    -0.5851590000     0.7462280000 
 H        0.3792790000     0.3760940000    -0.7237920000 
 H        2.8845760000    -0.0268750000     1.0121570000 
 H        2.8285930000     0.9294470000    -0.4502640000 
 H        4.7224550000    -0.7194850000    -0.5568840000 
 H        3.8315520000    -3.0908430000    -2.0751110000 
*
