! RI PBE def2-SVP def2-SVP/J NBO PAL2
% maxcore 2000
% output
    # printlevel mini
    print[ P_Basis ] 0
    print[ P_SCFInfo ] 1
    print[ P_SCFIterInfo ] 1
    print[ P_OrbEn ] 0
    print[ P_Cartesian ] 0
end
*xyz 0 1
 C        0.9082400000    -0.1473520000    -0.0999220000 
 C        2.3633510000    -0.4406310000    -0.1680650000 
 C        2.8091760000    -1.4263750000    -1.2078360000 
 O        2.0132450000    -1.9501040000    -1.9444240000 
 N        3.1536760000     0.1507880000     0.6489390000 
 N        4.4957690000    -0.1864620000     0.5104250000 
 C        5.2165740000     0.4247230000     1.3548880000 
 H        0.3456060000    -1.0658660000     0.0855580000 
 H        0.5543860000     0.2364980000    -1.0601660000 
 H        0.7101310000     0.5770120000     0.6874090000 
 H        3.8864270000    -1.6379540000    -1.2565830000 
 H        6.2862380000     0.2393550000     1.3416440000 
 H        4.7895000000     1.1190790000     2.0810520000 
*
