! RI PBE def2-SVP def2-SVP/J NBO PAL2
% maxcore 2000
% output
    # printlevel mini
    print[ P_Basis ] 0
    print[ P_SCFInfo ] 1
    print[ P_SCFIterInfo ] 1
    print[ P_OrbEn ] 0
    print[ P_Cartesian ] 0
end
*xyz 0 1
 C        1.3485000000     0.2648600000    -0.1852880000 
 C        2.5448540000    -0.2085650000     0.6224220000 
 C        2.2700720000    -0.2093700000     2.1169710000 
 O        3.3999990000    -0.5802140000     2.8609560000 
 N        2.9904410000    -1.5478850000     0.2610650000 
 N        3.7146320000    -1.6276320000    -0.8762050000 
 C        3.7288890000    -2.7182680000    -1.5233460000 
 H        1.0791850000     1.2907510000     0.0777570000 
 H        0.4750050000    -0.3691130000    -0.0020060000 
 H        1.5736640000     0.2354800000    -1.2529730000 
 H        3.4031480000     0.4409210000     0.4306300000 
 H        1.4173520000    -0.8773770000     2.3287230000 
 H        1.9782220000     0.7939500000     2.4367710000 
 H        3.8197920000    -1.2954340000     2.3668960000 
 H        2.2549550000    -2.2503460000     0.3417990000 
 H        4.3594530000    -2.7786930000    -2.4020970000 
 H        3.1475570000    -3.5985560000    -1.2291640000 
*
