! RI PBE def2-SVP def2-SVP/J NBO PAL2
% maxcore 2000
% output
    # printlevel mini
    print[ P_Basis ] 0
    print[ P_SCFInfo ] 1
    print[ P_SCFIterInfo ] 1
    print[ P_OrbEn ] 0
    print[ P_Cartesian ] 0
end
*xyz 0 1
 C        1.1020500000    -0.9786940000    -0.1257650000 
 C        2.1391550000    -0.1833450000    -0.9003180000 
 C        3.3089230000     0.2137500000    -0.0280300000 
 O        3.1786310000     0.6337790000     1.1060550000 
 N        4.5318350000     0.0898810000    -0.6088520000 
 N        5.6750710000     0.5941360000     0.0058100000 
 C        6.3135170000    -0.4027670000     0.8555900000 
 H        0.2207880000    -1.1688850000    -0.7409180000 
 H        0.7960980000    -0.4291970000     0.7646990000 
 H        1.5052250000    -1.9412340000     0.1967010000 
 H        1.6940490000     0.7475270000    -1.2689910000 
 H        2.4856160000    -0.7384620000    -1.7773320000 
 H        4.5991990000    -0.0439660000    -1.6041080000 
 H        5.3614210000     1.3652550000     0.5880790000 
 H        6.7156540000    -1.2048230000     0.2339570000 
 H        5.6347040000    -0.8326080000     1.6007690000 
 H        7.1487430000     0.0771410000     1.3693840000 
*
