! RI PBE def2-SVP def2-SVP/J NBO PAL2
% maxcore 2000
% output
    # printlevel mini
    print[ P_Basis ] 0
    print[ P_SCFInfo ] 1
    print[ P_SCFIterInfo ] 1
    print[ P_OrbEn ] 0
    print[ P_Cartesian ] 0
end
*xyz 0 1
 C        0.9079310000    -0.1191610000    -0.1595770000 
 C        2.4057920000     0.0527690000    -0.0171690000 
 C        2.9617120000     1.0374130000    -1.0117190000 
 O        2.2997820000     1.6293500000    -1.8343810000 
 N        4.3191680000     1.2620980000    -0.9602740000 
 N        5.1270710000     0.6524610000    -0.0841060000 
 C        6.3651040000     0.9265840000    -0.1159610000 
 H        0.5376540000    -0.8376540000     0.5740200000 
 H        0.6458890000    -0.4769460000    -1.1562220000 
 H        0.3871080000     0.8274790000    -0.0092570000 
 H        2.9369650000    -0.8953950000    -0.1455430000 
 H        2.6816560000     0.3917120000     0.9861490000 
 H        4.6853100000     1.9282480000    -1.6351470000 
 H        7.0100760000     0.4279570000     0.5968680000 
 H        6.8054720000     1.6355750000    -0.8229800000 
*
