! RI PBE def2-SVP def2-SVP/J NBO PAL2
% maxcore 2000
% output
    # printlevel mini
    print[ P_Basis ] 0
    print[ P_SCFInfo ] 1
    print[ P_SCFIterInfo ] 1
    print[ P_OrbEn ] 0
    print[ P_Cartesian ] 0
end
*xyz 0 1
 C        0.5706780000     0.2934920000    -0.0858690000 
 C        2.0732820000     0.1040770000    -0.0640980000 
 C        2.6496410000    -0.0492530000    -1.4484680000 
 O        1.9892370000    -0.1146890000    -2.4611380000 
 N        4.0232390000    -0.0698770000    -1.5381280000 
 O        4.7527320000    -0.4071680000    -0.4125820000 
 C        5.6475580000     0.6380730000    -0.0779990000 
 H        0.1832140000     0.3804300000     0.9309610000 
 H        0.0782850000    -0.5484010000    -0.5735380000 
 H        0.2954170000     1.1927260000    -0.6387590000 
 H        2.3574650000    -0.7835910000     0.5109310000 
 H        2.5757590000     0.9391390000     0.4340720000 
 H        4.3876380000    -0.4965520000    -2.3816400000 
 H        6.1688550000     0.3047280000     0.8196720000 
 H        5.1100660000     1.5683350000     0.1272850000 
 H        6.3728540000     0.8090310000    -0.8797120000 
*
