! RI PBE def2-SVP def2-SVP/J NBO PAL2
% maxcore 2000
% output
    # printlevel mini
    print[ P_Basis ] 0
    print[ P_SCFInfo ] 1
    print[ P_SCFIterInfo ] 1
    print[ P_OrbEn ] 0
    print[ P_Cartesian ] 0
end
*xyz 0 1
 C        0.9685430000     0.5021630000     0.5175140000 
 C        2.2737110000     0.2964340000     0.4061760000 
 C        2.8896670000     0.1342380000    -0.9283630000 
 O        2.3311230000     0.1664430000    -1.9805260000 
 O        4.2358460000    -0.0632620000    -0.7581220000 
 N        4.9263680000    -0.2299870000    -1.9539250000 
 C        6.1546780000    -0.4056880000    -1.7221450000 
 H        0.4949400000     0.6238260000     1.4839380000 
 H        0.3471030000     0.5523700000    -0.3698200000 
 H        2.9275610000     0.2399900000     1.2685250000 
 H        6.7865940000    -0.5465510000    -2.5913870000 
 H        6.5809560000    -0.4192670000    -0.7200630000 
*
