! RI PBE def2-SVP def2-SVP/J NBO PAL2
% maxcore 2000
% output
    # printlevel mini
    print[ P_Basis ] 0
    print[ P_SCFInfo ] 1
    print[ P_SCFIterInfo ] 1
    print[ P_OrbEn ] 0
    print[ P_Cartesian ] 0
end
*xyz 0 1
 C        1.7298300000     1.0762600000     0.2076120000 
 C        2.0860410000    -0.3567090000    -0.1269340000 
 N        2.7843070000    -0.4390940000    -1.3951900000 
 C        2.7383550000    -1.7115730000    -2.0924070000 
 C        1.9772610000    -0.5472830000    -2.5935220000 
 C        2.4567880000     0.2785690000    -3.7616130000 
 O        3.8522830000     0.4125800000    -3.7565130000 
 H        1.2287990000     1.1327870000     1.1763040000 
 H        1.0586170000     1.5000100000    -0.5437340000 
 H        2.6273260000     1.6966450000     0.2470800000 
 H        1.1757860000    -0.9796240000    -0.1367950000 
 H        2.7459360000    -0.7699820000     0.6423790000 
 H        2.1703770000    -2.5134890000    -1.6272460000 
 H        3.6559270000    -2.0106220000    -2.5867180000 
 H        0.8969010000    -0.5814950000    -2.4569460000 
 H        1.9651450000     1.2632780000    -3.7233970000 
 H        2.1678460000    -0.1963080000    -4.7041810000 
 H        4.0945770000     0.4917510000    -2.8220600000 
*
