! RI PBE def2-SVP def2-SVP/J NBO PAL2
% maxcore 2000
% output
    # printlevel mini
    print[ P_Basis ] 0
    print[ P_SCFInfo ] 1
    print[ P_SCFIterInfo ] 1
    print[ P_OrbEn ] 0
    print[ P_Cartesian ] 0
end
*xyz 0 1
 C        0.9148180000     1.2120470000     0.2679970000 
 C        1.6273890000     2.0701620000    -0.7542240000 
 N        3.0649940000     1.8687400000    -0.6922050000 
 C        3.8949820000     2.9294760000    -1.1763610000 
 C        3.7702860000     2.6772830000     0.2912040000 
 C        4.8738610000     2.0060840000     1.0106750000 
 O        5.2783200000     2.3408890000     2.0909550000 
 H       -0.1665130000     1.3419590000     0.1904450000 
 H        1.2143550000     1.4801320000     1.2840890000 
 H        1.1487820000     0.1572600000     0.1132460000 
 H        1.3679230000     3.1323720000    -0.6090780000 
 H        1.3082250000     1.7984220000    -1.7649180000 
 H        3.4204930000     3.8403420000    -1.5351240000 
 H        4.7958960000     2.6338660000    -1.7046730000 
 H        3.2073600000     3.4072380000     0.8685330000 
 H        5.3165290000     1.1494300000     0.4580200000 
*
