! RI PBE def2-SVP def2-SVP/J NBO PAL2
% maxcore 2000
% output
    # printlevel mini
    print[ P_Basis ] 0
    print[ P_SCFInfo ] 1
    print[ P_SCFIterInfo ] 1
    print[ P_OrbEn ] 0
    print[ P_Cartesian ] 0
end
*xyz 0 1
 C        2.4326300000    -1.2668150000    -0.0035060000 
 C        2.4639290000     0.0629550000    -0.0350050000 
 N        2.8657830000     0.8290070000    -1.1140030000 
 C        2.9507500000     2.2768860000    -1.2889230000 
 C        3.4643500000     2.0173360000    -2.7192220000 
 C        3.3197090000     0.5327060000    -2.3808850000 
 O        3.5067530000    -0.5100120000    -2.9410160000 
 H        2.0999940000    -1.7674880000     0.8951520000 
 H        2.7316610000    -1.8633560000    -0.8546780000 
 H        2.1627120000     0.6573860000     0.8221180000 
 H        3.6657590000     2.7570290000    -0.6164560000 
 H        1.9840350000     2.7822110000    -1.2249100000 
 H        4.4890640000     2.3304200000    -2.9178470000 
 H        2.8125710000     2.3555250000    -3.5244080000 
*
