! RI PBE def2-SVP def2-SVP/J NBO PAL2
% maxcore 2000
% output
    # printlevel mini
    print[ P_Basis ] 0
    print[ P_SCFInfo ] 1
    print[ P_SCFIterInfo ] 1
    print[ P_OrbEn ] 0
    print[ P_Cartesian ] 0
end
*xyz 0 1
 C        2.9148420000     0.5139840000    -1.1142660000 
 C        2.3035890000    -0.1546490000     0.1055560000 
 N        3.0095520000     0.1286610000     1.3224810000 
 C        3.1952970000     1.3498420000     2.0940860000 
 C        3.9948780000     0.5075490000     3.1107050000 
 C        3.6958750000    -0.6759970000     2.1847890000 
 O        3.9351600000    -1.8535320000     2.1716160000 
 H        2.3422740000     0.2644780000    -2.0102270000 
 H        3.9446550000     0.1830940000    -1.2620940000 
 H        2.9160270000     1.6020470000    -1.0134970000 
 H        2.3181430000    -1.2417410000    -0.0040410000 
 H        1.2543970000     0.1464670000     0.2150530000 
 H        2.2627780000     1.7773750000     2.4754480000 
 H        3.7677320000     2.1257170000     1.5782550000 
 H        3.5515690000     0.4197250000     4.1021510000 
 H        5.0533320000     0.7509790000     3.1979040000 
*
