! RI PBE def2-SVP def2-SVP/J NBO PAL2
% maxcore 2000
% output
    # printlevel mini
    print[ P_Basis ] 0
    print[ P_SCFInfo ] 1
    print[ P_SCFIterInfo ] 1
    print[ P_OrbEn ] 0
    print[ P_Cartesian ] 0
end
*xyz 0 1
 C        3.1340240000    -0.0153930000    -1.1477000000 
 C        2.2183030000     0.0719840000     0.0558090000 
 N        2.7448590000    -0.6479530000     1.1855520000 
 C        1.9449920000    -0.7012730000     2.4136660000 
 C        2.4734330000    -2.1270730000     2.6454820000 
 O        3.5959020000    -2.2144240000     3.4798220000 
 C        2.7846660000    -2.1158260000     1.1387790000 
 H        2.7225090000     0.5478740000    -1.9879120000 
 H        3.2596820000    -1.0513680000    -1.4734060000 
 H        4.1213020000     0.3862540000    -0.9102480000 
 H        1.2112440000    -0.3029570000    -0.2135830000 
 H        2.0942020000     1.1185610000     0.3539060000 
 H        0.8604610000    -0.6942960000     2.2191510000 
 H        2.1841290000     0.0519140000     3.1701450000 
 H        1.7618010000    -2.8701100000     3.0009050000 
 H        4.2337650000    -1.5606830000     3.1754280000 
 H        1.9616400000    -2.5486230000     0.5467310000 
 H        3.7323940000    -2.5610190000     0.8240910000 
*
