! RI PBE def2-SVP def2-SVP/J NBO PAL2
% maxcore 2000
% output
    # printlevel mini
    print[ P_Basis ] 0
    print[ P_SCFInfo ] 1
    print[ P_SCFIterInfo ] 1
    print[ P_OrbEn ] 0
    print[ P_Cartesian ] 0
end
*xyz 0 1
 C        0.9796090000     0.3007580000    -0.1316010000 
 C        2.4816520000     0.0649790000    -0.0108960000 
 N        3.0126090000    -0.8498210000    -1.0160530000 
 C        3.2289360000     1.3811930000    -0.0301850000 
 C        4.7224630000     1.4485460000    -0.1837200000 
 C        3.8212800000     1.9531440000    -1.2677910000 
 O        3.6561960000     3.3253010000    -1.4567490000 
 H        0.4314630000    -0.6438460000    -0.0812200000 
 H        0.7460790000     0.7813380000    -1.0867800000 
 H        0.6091870000     0.9507080000     0.6659830000 
 H        2.6811380000    -0.4013610000     0.9618540000 
 H        2.6379560000    -0.6177900000    -1.9293080000 
 H        2.7153370000    -1.7962900000    -0.8166390000 
 H        2.8097310000     2.1367530000     0.6269820000 
 H        5.2450850000     0.5185540000    -0.3714170000 
 H        5.2479210000     2.1868860000     0.4097440000 
 H        3.7781210000     1.3581680000    -2.1772320000 
 H        4.4575270000     3.6676900000    -1.8619750000 
*
