! RI PBE def2-SVP def2-SVP/J NBO PAL2
% maxcore 2000
% output
    # printlevel mini
    print[ P_Basis ] 0
    print[ P_SCFInfo ] 1
    print[ P_SCFIterInfo ] 1
    print[ P_OrbEn ] 0
    print[ P_Cartesian ] 0
end
*xyz 0 1
 C        1.0447020000     0.1966170000     0.0271290000 
 C        2.5686190000     0.1309420000     0.0158300000 
 N        3.1381970000    -0.2978370000    -1.2519330000 
 C        3.1597320000     1.4758420000     0.3933770000 
 C        4.6807710000     1.6477730000     0.3350890000 
 C        4.3750610000     2.7537290000    -0.6743190000 
 O        2.9689520000     2.4601660000    -0.6447840000 
 H        0.6134750000    -0.7682710000    -0.2515070000 
 H        0.6942570000     0.9460950000    -0.6876950000 
 H        0.6597300000     0.4643450000     1.0155610000 
 H        2.9015850000    -0.5779670000     0.7858490000 
 H        2.8572090000     0.3574060000    -1.9735370000 
 H        2.7770390000    -1.2061610000    -1.5139680000 
 H        2.7077210000     1.8185720000     1.3331530000 
 H        5.1923450000     0.7847890000    -0.0873620000 
 H        5.1593880000     1.9616810000     1.2616330000 
 H        4.7947210000     2.6262670000    -1.6764630000 
 H        4.5759950000     3.7727120000    -0.3266520000 
*
