! RI PBE def2-SVP def2-SVP/J NBO PAL2
% maxcore 2000
% output
    # printlevel mini
    print[ P_Basis ] 0
    print[ P_SCFInfo ] 1
    print[ P_SCFIterInfo ] 1
    print[ P_OrbEn ] 0
    print[ P_Cartesian ] 0
end
*xyz 0 1
 C        1.1075460000     0.7350970000     0.1398540000 
 C        2.4087410000     0.7152950000    -0.6338990000 
 N        3.4787910000     0.1419890000     0.1603540000 
 C        4.7439130000     0.0803850000    -0.5036800000 
 C        5.8821740000    -0.6144710000     0.2446990000 
 O        6.2340140000    -1.3815700000    -0.9138120000 
 C        5.0471170000    -0.9667960000    -1.6010050000 
 H        0.3123850000     1.1987600000    -0.4474690000 
 H        1.2235210000     1.2919780000     1.0717350000 
 H        0.7834010000    -0.2793240000     0.3908600000 
 H        2.7013510000     1.7391860000    -0.8921460000 
 H        2.2600050000     0.1854940000    -1.5908600000 
 H        3.2116730000    -0.7794830000     0.4899950000 
 H        5.0151110000     1.0886350000    -0.8275110000 
 H        5.5292330000    -1.2518010000     1.0665920000 
 H        6.7097300000     0.0044470000     0.6010190000 
 H        4.3016220000    -1.7728170000    -1.6520230000 
 H        5.2638810000    -0.6089140000    -2.6116940000 
*
