! RI PBE def2-SVP def2-SVP/J NBO PAL2
% maxcore 2000
% output
    # printlevel mini
    print[ P_Basis ] 0
    print[ P_SCFInfo ] 1
    print[ P_SCFIterInfo ] 1
    print[ P_OrbEn ] 0
    print[ P_Cartesian ] 0
end
*xyz 0 1
 C        0.9585090000    -0.1522260000     0.1901590000 
 C        2.4813530000    -0.0785840000     0.1325390000 
 N        3.1494350000    -0.6590500000     1.2895450000 
 C        2.9999360000    -0.6997530000    -1.1558950000 
 C        4.5146520000    -0.8571560000    -1.3265400000 
 O        4.3927480000    -2.2762560000    -1.5187690000 
 C        2.9814310000    -2.2293980000    -1.3007090000 
 H        0.5799210000     0.3206300000     1.0998320000 
 H        0.6223880000    -1.1943040000     0.1920560000 
 H        0.4973910000     0.3468490000    -0.6670330000 
 H        2.7731780000     0.9793180000     0.1113970000 
 H        2.8452770000    -1.6145480000     1.4376460000 
 H        2.9112690000    -0.1450630000     2.1282590000 
 H        2.5254490000    -0.1995010000    -2.0025470000 
 H        5.0900080000    -0.6199730000    -0.4275880000 
 H        4.9558310000    -0.3677270000    -2.2004500000 
 H        2.6897550000    -2.7912160000    -0.4038970000 
 H        2.4203880000    -2.6255420000    -2.1534970000 
*
