! RI PBE def2-SVP def2-SVP/J NBO PAL2
% maxcore 2000
% output
    # printlevel mini
    print[ P_Basis ] 0
    print[ P_SCFInfo ] 1
    print[ P_SCFIterInfo ] 1
    print[ P_OrbEn ] 0
    print[ P_Cartesian ] 0
end
*xyz 0 1
 C        0.8322470000    -0.0437700000    -0.1219790000 
 C        2.3456890000     0.0690720000    -0.1957930000 
 N        2.8844670000    -0.0454510000    -1.5535090000 
 C        2.9365450000     1.3397670000     0.3820140000 
 O        4.3268560000     1.3283190000     0.2949870000 
 C        2.2583340000     2.6728300000     0.2235340000 
 C        2.3979440000     2.0251090000     1.5806470000 
 H        0.5105520000    -1.0024190000    -0.5357890000 
 H        0.3460050000     0.7464500000    -0.7006640000 
 H        0.4659900000     0.0100130000     0.9056880000 
 H        2.7886010000    -0.7540360000     0.3779190000 
 H        2.3932570000     0.5851830000    -2.1778940000 
 H        2.7680170000    -0.9828430000    -1.9158350000 
 H        4.5065890000     0.9542450000    -0.5811870000 
 H        1.2678380000     2.7312420000    -0.2119050000 
 H        2.9074650000     3.5113150000     0.0063950000 
 H        1.5061990000     1.6409220000     2.0594920000 
 H        3.1356860000     2.4403450000     2.2556010000 
*
