! RI PBE def2-SVP def2-SVP/J NBO PAL2
% maxcore 2000
% output
    # printlevel mini
    print[ P_Basis ] 0
    print[ P_SCFInfo ] 1
    print[ P_SCFIterInfo ] 1
    print[ P_OrbEn ] 0
    print[ P_Cartesian ] 0
end
*xyz 0 1
 C        0.8507610000     0.1113100000     0.0025900000 
 C        2.3720050000     0.0268690000     0.0339750000 
 N        2.9224240000    -0.2754160000     1.3512280000 
 C        2.9170170000    -0.9996700000    -0.9540370000 
 C        2.6201250000    -0.6916940000    -2.3896710000 
 C        2.5319090000    -1.7341660000    -3.4061330000 
 O        1.3619540000    -1.1050920000    -2.9124230000 
 H        0.4951180000     0.8634660000     0.7122070000 
 H        0.4093180000    -0.8513140000     0.2794930000 
 H        0.4742090000     0.3718200000    -0.9889090000 
 H        2.7784780000     1.0057680000    -0.2527490000 
 H        2.5801640000    -1.1781330000     1.6650970000 
 H        2.5940970000     0.4028400000     2.0290470000 
 H        2.5131650000    -1.9915960000    -0.7167940000 
 H        4.0025820000    -1.0514380000    -0.8203530000 
 H        2.9188190000     0.3023530000    -2.7255340000 
 H        2.6597430000    -2.7732170000    -3.1102280000 
 H        2.7829220000    -1.5079010000    -4.4396160000 
*
