! RI PBE def2-SVP def2-SVP/J NBO PAL2
% maxcore 2000
% output
    # printlevel mini
    print[ P_Basis ] 0
    print[ P_SCFInfo ] 1
    print[ P_SCFIterInfo ] 1
    print[ P_OrbEn ] 0
    print[ P_Cartesian ] 0
end
*xyz 0 1
 C        1.1212260000     0.0891690000     0.2577230000 
 C        2.6346310000     0.0605570000     0.2589180000 
 N        3.1725840000     0.6280870000     1.4826110000 
 C        4.6241580000     0.5369740000     1.5774870000 
 C        5.1501310000     1.2213930000     2.8288030000 
 C        4.8769130000     2.7171160000     2.8543820000 
 O        3.5066970000     3.0263080000     2.9164720000 
 H        0.7269960000    -0.3191020000    -0.6748990000 
 H        0.7521100000     1.1106070000     0.3706850000 
 H        0.7145870000    -0.5095850000     1.0781510000 
 H        3.0189820000     0.6516230000    -0.5790270000 
 H        2.9900850000    -0.9718780000     0.0996430000 
 H        2.7593980000     0.1534410000     2.2794840000 
 H        5.0419480000     1.0334300000     0.6934170000 
 H        4.9721410000    -0.5089830000     1.5399240000 
 H        6.2307990000     1.0541720000     2.8898070000 
 H        4.7081550000     0.7594940000     3.7201230000 
 H        5.3459500000     3.1795590000     1.9696620000 
 H        5.3472130000     3.1650700000     3.7347010000 
 H        3.0743170000     2.4311490000     2.2795330000 
*
