! RI PBE def2-SVP def2-SVP/J NBO PAL2
% maxcore 2000
% output
    # printlevel mini
    print[ P_Basis ] 0
    print[ P_SCFInfo ] 1
    print[ P_SCFIterInfo ] 1
    print[ P_OrbEn ] 0
    print[ P_Cartesian ] 0
end
*xyz 0 1
 C        0.9555930000     0.0326990000    -0.0199810000 
 C        2.4543350000    -0.0302150000    -0.0468790000 
 N        3.0508320000     1.1446510000     0.2799780000 
 C        3.1184030000    -1.1804870000    -0.3745640000 
 C        2.4155190000    -2.4561630000    -0.7289600000 
 C        4.5582900000    -1.2369130000    -0.3994940000 
 O        5.2071120000    -2.2254820000    -0.6815310000 
 H        0.6026190000     1.0262260000     0.2612790000 
 H        0.5490880000    -0.6845610000     0.6953020000 
 H        0.5386360000    -0.2085280000    -0.9994100000 
 H        2.4931460000     1.9437470000     0.5084650000 
 H        4.0471370000     1.2481560000     0.3034350000 
 H        1.3305930000    -2.3663640000    -0.6965840000 
 H        2.7117020000    -3.2605310000    -0.0499090000 
 H        2.7006900000    -2.7874070000    -1.7313590000 
 H        5.1079060000    -0.3033500000    -0.1405050000 
*
