! RI PBE def2-SVP def2-SVP/J NBO PAL2
% maxcore 2000
% output
    # printlevel mini
    print[ P_Basis ] 0
    print[ P_SCFInfo ] 1
    print[ P_SCFIterInfo ] 1
    print[ P_OrbEn ] 0
    print[ P_Cartesian ] 0
end
*xyz 0 1
 C        0.8225540000     0.1390350000    -0.1056960000 
 C        2.2966850000    -0.0703350000     0.0547320000 
 N        2.6388970000    -0.5328810000     1.2825340000 
 C        3.1352010000     0.2021680000    -0.9799380000 
 C        4.5799850000     0.0881580000    -1.0850670000 
 C        5.4092660000    -0.4053890000     0.0831470000 
 O        5.1453380000     0.3902850000    -2.1220550000 
 H        0.2828760000    -0.7996790000     0.0536850000 
 H        0.5852600000     0.5095740000    -1.0999900000 
 H        0.4558450000     0.8604970000     0.6310910000 
 H        1.9276970000    -0.6976420000     1.9685740000 
 H        3.5886030000    -0.7206560000     1.5376500000 
 H        2.6747870000     0.5665900000    -1.8897350000 
 H        5.1222750000    -1.4227970000     0.3694390000 
 H        5.2961450000     0.2504390000     0.9529330000 
 H        6.4560960000    -0.4102560000    -0.2150040000 
*
