! RI PBE def2-SVP def2-SVP/J NBO PAL2
% maxcore 2000
% output
    # printlevel mini
    print[ P_Basis ] 0
    print[ P_SCFInfo ] 1
    print[ P_SCFIterInfo ] 1
    print[ P_OrbEn ] 0
    print[ P_Cartesian ] 0
end
*xyz 0 1
 C        0.7861810000    -0.2563590000    -0.5059190000 
 C        2.2319240000     0.1364270000    -0.1930450000 
 N        2.7030490000     1.3018370000    -0.9215750000 
 C        2.4106460000     0.3091890000     1.2854280000 
 C        2.9955750000     1.3360260000     1.8910510000 
 C        3.1332170000     1.4518690000     3.3718180000 
 O        4.4852950000     1.5697850000     3.7785630000 
 H        0.6626370000    -0.4440280000    -1.5755930000 
 H        0.1020460000     0.5470220000    -0.2174050000 
 H        0.4888020000    -1.1613070000     0.0316000000 
 H        2.8734280000    -0.7032310000    -0.4972010000 
 H        2.1101730000     2.0996620000    -0.7177160000 
 H        2.6415360000     1.1368840000    -1.9185390000 
 H        1.9942010000    -0.4918720000     1.8958510000 
 H        3.4390500000     2.1312730000     1.2970150000 
 H        2.6425980000     0.5994160000     3.8624900000 
 H        2.6456770000     2.3624350000     3.7331160000 
 H        4.9739440000     0.8499820000     3.3699720000 
*
