! RI PBE def2-SVP def2-SVP/J NBO PAL2
% maxcore 2000
% output
    # printlevel mini
    print[ P_Basis ] 0
    print[ P_SCFInfo ] 1
    print[ P_SCFIterInfo ] 1
    print[ P_OrbEn ] 0
    print[ P_Cartesian ] 0
end
*xyz 0 1
 C        1.0607940000    -0.2753770000     0.4813310000 
 C        2.4881260000    -0.1548310000    -0.0255680000 
 N        3.1283430000    -1.4583740000    -0.2635990000 
 C        2.6609730000     0.6963230000    -1.2643370000 
 C        1.6441870000     1.2013110000    -1.9533970000 
 C        4.0868270000     0.9783740000    -1.6650340000 
 O        4.8054080000    -0.1672750000    -2.0569400000 
 H        1.0397450000    -0.8822210000     1.3900530000 
 H        0.4191210000    -0.7614130000    -0.2589460000 
 H        0.6309670000     0.7003520000     0.7185270000 
 H        3.0881980000     0.3267900000     0.7589750000 
 H        2.5699780000    -1.9970640000    -0.9179240000 
 H        3.1785920000    -1.9904270000     0.5970480000 
 H        0.6094000000     1.0419720000    -1.6733390000 
 H        1.8208080000     1.8094940000    -2.8339470000 
 H        4.5904160000     1.4814240000    -0.8211620000 
 H        4.0970810000     1.6742880000    -2.5074020000 
 H        4.5568370000    -0.8601450000    -1.4194370000 
*
