! RI PBE def2-SVP def2-SVP/J NBO PAL2
% maxcore 2000
% output
    # printlevel mini
    print[ P_Basis ] 0
    print[ P_SCFInfo ] 1
    print[ P_SCFIterInfo ] 1
    print[ P_OrbEn ] 0
    print[ P_Cartesian ] 0
end
*xyz 0 1
 C        1.4163460000     0.2994770000    -0.4713580000 
 C        2.8853990000    -0.0510970000    -0.6713280000 
 N        3.7530280000     1.1308220000    -0.5752300000 
 C        3.3922740000    -1.1363820000     0.2882890000 
 C        2.5110530000    -2.3784360000     0.2610480000 
 C        4.8353890000    -1.5395560000    -0.0211340000 
 O        5.7840880000    -0.5311720000     0.1979730000 
 H        1.1319950000     1.1256990000    -1.1286900000 
 H        1.2310180000     0.6135760000     0.5612940000 
 H        0.7547470000    -0.5399790000    -0.6922920000 
 H        3.0131870000    -0.4400690000    -1.6903510000 
 H        3.5871790000     1.6073810000     0.3059150000 
 H        3.5305210000     1.7919250000    -1.3098190000 
 H        3.3806590000    -0.7179530000     1.3054400000 
 H        2.4324020000    -2.7835580000    -0.7531390000 
 H        1.5004650000    -2.1787430000     0.6192540000 
 H        2.9347200000    -3.1606400000     0.8951960000 
 H        4.8755770000    -1.9079320000    -1.0617670000 
 H        5.1108990000    -2.3821190000     0.6210240000 
 H        5.3982830000     0.2700660000    -0.2010240000 
*
