! RI PBE def2-SVP def2-SVP/J NBO PAL2
% maxcore 2000
% output
    # printlevel mini
    print[ P_Basis ] 0
    print[ P_SCFInfo ] 1
    print[ P_SCFIterInfo ] 1
    print[ P_OrbEn ] 0
    print[ P_Cartesian ] 0
end
*xyz 0 1
 C        1.3508770000    -0.4181630000    -0.1021440000 
 C        2.7962420000     0.0478010000    -0.1786660000 
 N        3.7395970000    -1.0265670000    -0.4940780000 
 C        3.0545870000     1.2128860000    -1.1625530000 
 C        2.6570000000     0.8571260000    -2.5930270000 
 C        2.3497050000     2.4802540000    -0.7143560000 
 O        4.4431880000     1.4883690000    -1.1176460000 
 H        1.2421820000    -1.1879610000     0.6660380000 
 H        1.0247200000    -0.8498020000    -1.0526930000 
 H        0.6697830000     0.3978910000     0.1484130000 
 H        3.0960490000     0.4352260000     0.8013790000 
 H        3.3735180000    -1.6287840000    -1.2221530000 
 H        3.9107960000    -1.6084290000     0.3148130000 
 H        1.5812790000     0.6963290000    -2.6985390000 
 H        3.1799470000    -0.0404450000    -2.9336800000 
 H        2.9469660000     1.6746230000    -3.2554770000 
 H        1.2648970000     2.3957260000    -0.7992220000 
 H        2.6759730000     3.3134460000    -1.3398290000 
 H        2.6076740000     2.7158620000     0.3207470000 
 H        4.8579200000     0.6137130000    -1.0488160000 
*
