! RI PBE def2-SVP def2-SVP/J NBO PAL2
% maxcore 2000
% output
    # printlevel mini
    print[ P_Basis ] 0
    print[ P_SCFInfo ] 1
    print[ P_SCFIterInfo ] 1
    print[ P_OrbEn ] 0
    print[ P_Cartesian ] 0
end
*xyz 0 1
 C        0.8542410000    -0.1267520000    -0.4849810000 
 C        2.2106540000     0.0099590000     0.2110530000 
 N        3.2563210000    -0.8654110000    -0.3108810000 
 C        2.6733940000     1.3954090000     0.1570070000 
 C        3.0326320000     2.5402200000     0.0691400000 
 C        3.5289460000     3.9098540000     0.0104930000 
 O        4.9027120000     3.9926010000    -0.3073230000 
 H        0.5006220000    -1.1584890000    -0.4103630000 
 H        0.9418070000     0.1362800000    -1.5417190000 
 H        0.1066500000     0.5270280000    -0.0301490000 
 H        2.0787450000    -0.2544960000     1.2678780000 
 H        3.4709510000    -0.6097030000    -1.2680780000 
 H        2.9229220000    -1.8224580000    -0.3222540000 
 H        3.3125120000     4.4083680000     0.9660110000 
 H        3.0025620000     4.4678860000    -0.7682690000 
 H        5.3700290000     3.3574120000     0.2423460000 
*
