! RI PBE def2-SVP def2-SVP/J NBO PAL2
% maxcore 2000
% output
    # printlevel mini
    print[ P_Basis ] 0
    print[ P_SCFInfo ] 1
    print[ P_SCFIterInfo ] 1
    print[ P_OrbEn ] 0
    print[ P_Cartesian ] 0
end
*xyz 0 1
 C        1.1167450000    -0.1137840000    -0.0647830000 
 C        2.6391220000    -0.1303530000    -0.0940190000 
 N        3.1911130000    -0.1710070000    -1.4531360000 
 C        3.2204760000     1.0649430000     0.6539800000 
 C        4.7432260000     1.0800690000     0.8083870000 
 C        5.2798850000    -0.1073690000     1.5950180000 
 O        5.3945210000     1.1990670000    -0.4381020000 
 H        0.7051790000    -0.9684840000    -0.6087700000 
 H        0.7324350000     0.7995240000    -0.5305320000 
 H        0.7360920000    -0.1518780000     0.9593340000 
 H        2.9794180000    -1.0469030000     0.4002010000 
 H        2.8200510000     0.6014520000    -1.9978840000 
 H        2.9141190000    -1.0228080000    -1.9263530000 
 H        2.7634480000     1.1087750000     1.6481350000 
 H        2.9225360000     1.9837870000     0.1328800000 
 H        4.9976390000     1.9910280000     1.3633010000 
 H        5.1049270000    -1.0473440000     1.0653950000 
 H        4.8175220000    -0.1765810000     2.5843020000 
 H        6.3579650000     0.0001970000     1.7252990000 
 H        4.9331820000     0.5840590000    -1.0355460000 
*
