! RI PBE def2-SVP def2-SVP/J NBO PAL2
% maxcore 2000
% output
    # printlevel mini
    print[ P_Basis ] 0
    print[ P_SCFInfo ] 1
    print[ P_SCFIterInfo ] 1
    print[ P_OrbEn ] 0
    print[ P_Cartesian ] 0
end
*xyz 0 1
 C        2.0035980000    -1.0737460000    -0.4907660000 
 C        2.2720120000     0.2955530000     0.1083810000 
 N        2.8298300000     0.2248800000     1.4475860000 
 C        2.0208970000     0.0583480000     2.5600370000 
 C        0.6956150000    -0.0577190000     2.5767100000 
 C        4.1858630000     0.3112690000     1.6032390000 
 O        4.9779070000     0.4409610000     0.7027730000 
 H        1.5578750000    -0.9671510000    -1.4820770000 
 H        1.3204710000    -1.6568030000     0.1294820000 
 H        2.9358310000    -1.6312460000    -0.5964580000 
 H        1.3586380000     0.8930420000     0.1584330000 
 H        2.9976390000     0.8364100000    -0.4992880000 
 H        2.5811290000     0.0285770000     3.4896420000 
 H        0.0856390000    -0.0474200000     1.6834170000 
 H        0.1890420000    -0.1711210000     3.5246620000 
 H        4.4887950000     0.2507650000     2.6639260000 
*
