! RI PBE def2-SVP def2-SVP/J NBO PAL2
% maxcore 2000
% output
    # printlevel mini
    print[ P_Basis ] 0
    print[ P_SCFInfo ] 1
    print[ P_SCFIterInfo ] 1
    print[ P_OrbEn ] 0
    print[ P_Cartesian ] 0
end
*xyz 0 1
 C        2.3744590000     1.8248760000    -0.3877230000 
 C        2.6071050000     0.3528210000    -0.0924860000 
 N        2.9599570000    -0.4155640000    -1.2728340000 
 C        1.8666360000    -0.9439980000    -2.0457600000 
 C        4.2778020000    -0.5470730000    -1.5876070000 
 C        4.6346810000    -1.3631830000    -2.8088480000 
 O        5.1479190000    -0.0292830000    -0.9085220000 
 H        2.0789520000     2.3538680000     0.5214390000 
 H        1.5836590000     1.9682710000    -1.1287510000 
 H        3.2910600000     2.2806380000    -0.7654040000 
 H        1.7087570000    -0.0995440000     0.3396790000 
 H        3.4205280000     0.2440630000     0.6249590000 
 H        1.3150520000    -1.7042250000    -1.4802450000 
 H        2.2201380000    -1.3959360000    -2.9684270000 
 H        1.1627280000    -0.1491000000    -2.3137210000 
 H        4.2648290000    -0.8958590000    -3.7249360000 
 H        4.2290790000    -2.3761420000    -2.7602820000 
 H        5.7196780000    -1.4142520000    -2.8558310000 
*
