! RI PBE def2-SVP def2-SVP/J NBO PAL2
% maxcore 2000
% output
    # printlevel mini
    print[ P_Basis ] 0
    print[ P_SCFInfo ] 1
    print[ P_SCFIterInfo ] 1
    print[ P_OrbEn ] 0
    print[ P_Cartesian ] 0
end
*xyz 0 1
 C        3.3239780000     1.9961160000    -0.3664980000 
 C        2.5619520000     1.3078550000    -1.4812150000 
 N        3.0157720000    -0.0463900000    -1.7510660000 
 C        2.0726860000    -0.7615220000    -2.5831890000 
 C        4.3411460000    -0.1088200000    -2.3144320000 
 C        4.9378350000    -1.4874080000    -2.1821040000 
 O        5.7477860000    -1.9503210000    -2.9352930000 
 H        2.8585690000     2.9572370000    -0.1374760000 
 H        4.3638220000     2.2006650000    -0.6310030000 
 H        3.3151900000     1.3843010000     0.5379380000 
 H        2.5890820000     1.9293170000    -2.3957970000 
 H        1.5090740000     1.2347470000    -1.1931390000 
 H        1.0967150000    -0.7941150000    -2.0950190000 
 H        2.4063650000    -1.7915860000    -2.7331100000 
 H        1.9475000000    -0.3018520000    -3.5795600000 
 H        5.0097170000     0.5489600000    -1.7467670000 
 H        4.3984060000     0.2062690000    -3.3708940000 
 H        4.5826930000    -2.0487510000    -1.2899660000 
*
