! RI PBE def2-SVP def2-SVP/J NBO PAL2
% maxcore 2000
% output
    # printlevel mini
    print[ P_Basis ] 0
    print[ P_SCFInfo ] 1
    print[ P_SCFIterInfo ] 1
    print[ P_OrbEn ] 0
    print[ P_Cartesian ] 0
end
*xyz 0 1
 C        2.0922700000    -0.7118990000     1.1758610000 
 C        2.4534990000     0.0570220000    -0.0839790000 
 N        3.0331630000    -0.7860520000    -1.1122350000 
 C        2.1645310000    -1.4928250000    -2.0270790000 
 C        1.5694030000    -0.6124020000    -3.1134560000 
 C        4.3755080000    -0.9319560000    -1.1667490000 
 O        5.1722050000    -0.3909030000    -0.4313730000 
 H        1.6402160000    -0.0433020000     1.9121380000 
 H        2.9862020000    -1.1534640000     1.6193940000 
 H        1.3777150000    -1.5122650000     0.9681290000 
 H        3.1880280000     0.8291650000     0.1494880000 
 H        1.5711710000     0.5503340000    -0.5006180000 
 H        1.3658800000    -1.9775210000    -1.4547380000 
 H        2.7479880000    -2.2976900000    -2.4826810000 
 H        0.9765920000     0.2029200000    -2.6932630000 
 H        0.9128360000    -1.1999750000    -3.7595140000 
 H        2.3563090000    -0.1742340000    -3.7308760000 
 H        4.6882720000    -1.6173540000    -1.9782490000 
*
