! RI PBE def2-SVP def2-SVP/J NBO PAL2
% maxcore 2000
% output
    # printlevel mini
    print[ P_Basis ] 0
    print[ P_SCFInfo ] 1
    print[ P_SCFIterInfo ] 1
    print[ P_OrbEn ] 0
    print[ P_Cartesian ] 0
end
*xyz 0 1
 C        1.4856870000     0.0982710000     3.1368380000 
 C        2.9591550000     0.1683730000     2.7919800000 
 N        3.2564070000    -0.6831930000     1.6533260000 
 C        4.6571330000    -0.8030170000     1.2504190000 
 C        5.4382340000     0.4990970000     1.1451410000 
 C        5.3381810000    -1.7947350000     2.1895640000 
 O        4.5795360000    -2.9671650000     2.3123470000 
 H        1.2576510000     0.7296470000     3.9981220000 
 H        1.1890470000    -0.9265160000     3.3693360000 
 H        0.8698390000     0.4450160000     2.3013290000 
 H        3.5499070000    -0.1805170000     3.6445610000 
 H        3.2446170000     1.2182040000     2.6241780000 
 H        2.6855180000    -0.4129560000     0.8632640000 
 H        4.6321600000    -1.2768020000     0.2626570000 
 H        5.5596710000     0.9811150000     2.1183930000 
 H        4.9409780000     1.2069710000     0.4770090000 
 H        6.4375820000     0.3093590000     0.7452510000 
 H        5.5011780000    -1.3239130000     3.1726960000 
 H        6.3229810000    -2.0592670000     1.7934460000 
 H        3.6623380000    -2.6633610000     2.2207230000 
*
