! RI PBE def2-SVP def2-SVP/J NBO PAL2
% maxcore 2000
% output
    # printlevel mini
    print[ P_Basis ] 0
    print[ P_SCFInfo ] 1
    print[ P_SCFIterInfo ] 1
    print[ P_OrbEn ] 0
    print[ P_Cartesian ] 0
end
*xyz 0 1
 C        0.9965860000     0.4183790000    -0.1608330000 
 C        2.4622130000     0.1617890000     0.1169010000 
 N        3.1307120000    -0.3308550000    -1.0776160000 
 C        4.5443890000    -0.5531550000    -0.9176600000 
 C        5.1028680000    -1.4155430000    -2.0491330000 
 C        5.3775660000     0.7129590000    -0.8517210000 
 O        4.9709150000     1.8036410000    -1.1444940000 
 H        0.4813470000     0.7447430000     0.7448870000 
 H        0.5102160000    -0.4857810000    -0.5328060000 
 H        0.8729320000     1.2039140000    -0.9119420000 
 H        2.5600970000    -0.6079200000     0.8910800000 
 H        2.9253770000     1.0775430000     0.5154590000 
 H        2.9896810000     0.3344510000    -1.8314600000 
 H        4.7069300000    -1.0874940000     0.0285930000 
 H        4.9285640000    -0.9332290000    -3.0143800000 
 H        4.5982520000    -2.3815520000    -2.0531270000 
 H        6.1779200000    -1.5795060000    -1.9407960000 
 H        6.4385230000     0.5676160000    -0.5452420000 
*
