! RI PBE def2-SVP def2-SVP/J NBO PAL2
% maxcore 2000
% output
    # printlevel mini
    print[ P_Basis ] 0
    print[ P_SCFInfo ] 1
    print[ P_SCFIterInfo ] 1
    print[ P_OrbEn ] 0
    print[ P_Cartesian ] 0
end
*xyz 0 1
 C        1.4466970000    -1.0283140000     1.0812810000 
 C        2.7425670000    -0.3249710000     1.4252210000 
 N        3.5206380000    -1.0983850000     2.3738390000 
 C        4.8196210000    -0.5284670000     2.6712890000 
 C        5.4357390000    -1.1875360000     3.9021810000 
 C        4.7322190000    -0.7945200000     5.1865000000 
 O        5.4639190000    -2.5989090000     3.7460340000 
 H        0.8507730000    -0.4304370000     0.3886050000 
 H        0.8554630000    -1.2093590000     1.9813950000 
 H        1.6379290000    -1.9938230000     0.6031250000 
 H        2.5252620000     0.6468900000     1.8817040000 
 H        3.3047630000    -0.1127570000     0.4983940000 
 H        3.6598130000    -2.0289930000     1.9963020000 
 H        4.6919330000     0.5410750000     2.8694190000 
 H        5.5204210000    -0.6156430000     1.8251400000 
 H        6.4869910000    -0.8874680000     3.9577810000 
 H        3.6665840000    -1.0310900000     5.1203670000 
 H        4.8269860000     0.2781710000     5.3725380000 
 H        5.1646380000    -1.3293240000     6.0342990000 
 H        4.5749460000    -2.9181290000     3.9290840000 
*
