! RI PBE def2-SVP def2-SVP/J NBO PAL2
% maxcore 2000
% output
    # printlevel mini
    print[ P_Basis ] 0
    print[ P_SCFInfo ] 1
    print[ P_SCFIterInfo ] 1
    print[ P_OrbEn ] 0
    print[ P_Cartesian ] 0
end
*xyz 0 1
 C        1.2997250000     0.9668150000    -1.3138620000 
 C        2.7097880000     0.9923690000    -0.7638340000 
 N        3.0463740000    -0.2670690000    -0.1398000000 
 C        4.3836730000    -0.3496060000     0.3603390000 
 C        4.8698190000    -1.7775510000     0.4409120000 
 C        6.0889350000    -2.0225560000     1.2840440000 
 O        4.3078270000    -2.6639540000    -0.1541240000 
 H        1.0400230000     1.9275430000    -1.7631670000 
 H        0.5817770000     0.7472560000    -0.5212060000 
 H        1.1942090000     0.1994120000    -2.0861670000 
 H        2.7938980000     1.7832340000    -0.0090620000 
 H        3.4185690000     1.2611520000    -1.5691440000 
 H        2.8828000000    -1.0526400000    -0.7603740000 
 H        4.4757180000     0.1185510000     1.3496240000 
 H        5.1293860000     0.1694810000    -0.2785100000 
 H        5.7778330000    -2.0957410000     2.3310860000 
 H        6.7991850000    -1.1955930000     1.2145760000 
 H        6.5632700000    -2.9591040000     0.9955700000 
*
