! RI PBE def2-SVP def2-SVP/J NBO PAL2
% maxcore 2000
% output
    # printlevel mini
    print[ P_Basis ] 0
    print[ P_SCFInfo ] 1
    print[ P_SCFIterInfo ] 1
    print[ P_OrbEn ] 0
    print[ P_Cartesian ] 0
end
*xyz 0 1
 C        1.1075250000    -0.0235880000    -0.0030350000 
 C        2.6000560000    -0.0864260000     0.0096310000 
 N        3.1005850000    -1.2416570000     0.5343250000 
 C        3.3477400000     0.9359290000    -0.4677460000 
 C        4.7802170000     0.9666720000    -0.4975830000 
 N        5.4113530000     1.9734830000    -0.9661170000 
 O        6.7859010000     1.7768560000    -0.8906860000 
 H        0.7079320000    -0.1102630000     1.0127170000 
 H        0.6905210000    -0.8470710000    -0.5920390000 
 H        0.7613490000     0.9152740000    -0.4303580000 
 H        2.4823950000    -1.9542290000     0.8686170000 
 H        4.0850630000    -1.4115510000     0.6023770000 
 H        2.8332900000     1.8032270000    -0.8601460000 
 H        5.3652700000     0.1244960000    -0.1175220000 
 H        7.1374030000     2.5879400000    -1.2664360000 
*
