! RI PBE def2-SVP def2-SVP/J NBO PAL2
% maxcore 2000
% output
    # printlevel mini
    print[ P_Basis ] 0
    print[ P_SCFInfo ] 1
    print[ P_SCFIterInfo ] 1
    print[ P_OrbEn ] 0
    print[ P_Cartesian ] 0
end
*xyz 0 1
 C        0.8647490000    -0.0476190000     0.0834240000 
 C        2.3557730000    -0.1355480000     0.1363620000 
 N        2.8650120000    -1.3254090000     0.4916920000 
 C        3.1391760000     0.9398130000    -0.1619060000 
 C        4.5855130000     0.8756160000    -0.1168620000 
 N        5.2493650000     2.0211140000    -0.4376750000 
 O        5.2236640000    -0.1365600000     0.1889620000 
 H        0.4331620000    -0.2781630000     1.0618920000 
 H        0.4642880000    -0.7707360000    -0.6332040000 
 H        0.5395480000     0.9481380000    -0.2119100000 
 H        2.2665440000    -2.0996000000     0.7053580000 
 H        3.8782850000    -1.3925080000     0.5296220000 
 H        2.6545790000     1.8663220000    -0.4400880000 
 H        4.7695990000     2.8632280000    -0.6913760000 
 H        6.2527450000     2.0080220000    -0.4157620000 
*
