! RI PBE def2-SVP def2-SVP/J NBO PAL2
% maxcore 2000
% output
    # printlevel mini
    print[ P_Basis ] 0
    print[ P_SCFInfo ] 1
    print[ P_SCFIterInfo ] 1
    print[ P_OrbEn ] 0
    print[ P_Cartesian ] 0
end
*xyz 0 1
 C        0.8510600000     0.5327770000     0.0216060000 
 C        2.1627760000    -0.2338510000     0.0678250000 
 N        3.2117890000     0.3071760000    -0.7935980000 
 C        2.7393030000    -0.3831190000     1.4550540000 
 C        3.9451190000    -1.2420800000     1.6424300000 
 N        2.1532150000     0.2354730000     2.3980860000 
 O        2.7688460000     0.0168240000     3.6238130000 
 H        0.4875620000     0.5731460000    -1.0085630000 
 H        0.9868960000     1.5542270000     0.3828020000 
 H        0.0858040000     0.0632470000     0.6422500000 
 H        1.9797620000    -1.2575580000    -0.2886210000 
 H        3.3728040000     1.2816270000    -0.5628820000 
 H        2.9176560000     0.2772960000    -1.7621490000 
 H        4.3116370000    -1.5975790000     0.6814070000 
 H        3.7043650000    -2.0893960000     2.2905920000 
 H        4.7402490000    -0.6840170000     2.1414830000 
 H        2.2271500000     0.5341990000     4.2252750000 
*
