! RI PBE def2-SVP def2-SVP/J NBO PAL2
% maxcore 2000
% output
    # printlevel mini
    print[ P_Basis ] 0
    print[ P_SCFInfo ] 1
    print[ P_SCFIterInfo ] 1
    print[ P_OrbEn ] 0
    print[ P_Cartesian ] 0
end
*xyz 0 1
 C        1.5836990000     0.7095160000     0.0324320000 
 C        3.0517660000     0.3434740000    -0.0436040000 
 N        3.5533200000    -0.0208940000     1.2598610000 
 C        4.7934690000    -0.2555530000     1.4296080000 
 C        5.8866820000    -0.1697740000     0.4148140000 
 N        5.1810890000    -0.6961570000     2.6747810000 
 O        4.1839140000    -0.5979390000     3.6347980000 
 H        1.1965660000     0.9774900000    -0.9534140000 
 H        1.4339880000     1.5579840000     0.7036320000 
 H        1.0000820000    -0.1292580000     0.4172600000 
 H        3.6163370000     1.1884080000    -0.4644330000 
 H        3.1813420000    -0.4917780000    -0.7467100000 
 H        5.6892870000    -0.8594190000    -0.4092350000 
 H        6.8557050000    -0.4247990000     0.8454330000 
 H        5.9374550000     0.8370580000    -0.0058930000 
 H        6.0331650000    -0.2802120000     3.0292720000 
 H        3.4322260000    -0.2747270000     3.0831990000 
*
