! RI PBE def2-SVP def2-SVP/J NBO PAL2
% maxcore 2000
% output
    # printlevel mini
    print[ P_Basis ] 0
    print[ P_SCFInfo ] 1
    print[ P_SCFIterInfo ] 1
    print[ P_OrbEn ] 0
    print[ P_Cartesian ] 0
end
*xyz 0 1
 C        2.9722550000    -0.7598860000     1.4430720000 
 C        2.9657730000    -0.2907100000    -0.0046870000 
 N        3.2872820000    -1.3134860000    -0.9758940000 
 C        2.3312270000    -2.3695250000    -1.1910130000 
 C        4.6000820000    -1.5786660000    -1.2216800000 
 N        4.9955940000    -2.6936080000    -1.6985970000 
 O        6.3734690000    -2.6363190000    -1.9611700000 
 H        2.7299390000     0.0686190000     2.1132470000 
 H        3.9544650000    -1.1483610000     1.7226030000 
 H        2.2360840000    -1.5492840000     1.6103980000 
 H        3.6832730000     0.5252740000    -0.1326880000 
 H        1.9818830000     0.1154120000    -0.2608550000 
 H        1.3242160000    -1.9493210000    -1.1586390000 
 H        2.4074620000    -3.1721330000    -0.4461790000 
 H        2.5052500000    -2.8168020000    -2.1704560000 
 H        5.2993260000    -0.7663310000    -1.0191640000 
 H        6.5589200000    -3.5239850000    -2.2749870000 
*
