! RI PBE def2-SVP def2-SVP/J NBO PAL2
% maxcore 2000
% output
    # printlevel mini
    print[ P_Basis ] 0
    print[ P_SCFInfo ] 1
    print[ P_SCFIterInfo ] 1
    print[ P_OrbEn ] 0
    print[ P_Cartesian ] 0
end
*xyz 0 1
 C        2.3285700000    -2.0642320000     0.5903430000 
 C        2.5396300000    -0.6275760000     0.1364790000 
 N        3.0575650000     0.2515180000     1.1628510000 
 C        2.0890590000     0.9221110000     1.9963690000 
 C        4.3713140000     0.2781360000     1.5510040000 
 N        5.2437670000    -0.4732220000     0.7899400000 
 O        4.7660380000     0.8970120000     2.5233240000 
 H        1.9083100000    -2.6645990000    -0.2204060000 
 H        1.6363790000    -2.1085840000     1.4339960000 
 H        3.2716520000    -2.5170280000     0.9012810000 
 H        1.5891320000    -0.2002250000    -0.1950540000 
 H        3.1857280000    -0.5996200000    -0.7471030000 
 H        1.4436170000     1.5617090000     1.3869140000 
 H        2.6226070000     1.5315800000     2.7213700000 
 H        1.4575120000     0.2086740000     2.5383140000 
 H        5.0332850000    -0.6636370000    -0.1737510000 
 H        6.2050470000    -0.2474160000     0.9821380000 
*
