! RI PBE def2-SVP def2-SVP/J NBO PAL2
% maxcore 2000
% output
    # printlevel mini
    print[ P_Basis ] 0
    print[ P_SCFInfo ] 1
    print[ P_SCFIterInfo ] 1
    print[ P_OrbEn ] 0
    print[ P_Cartesian ] 0
end
*xyz 0 1
 C        1.3564710000    -0.5322280000    -0.1859210000 
 C        2.8480970000    -0.2815040000    -0.1325960000 
 N        3.1340970000     1.1189380000     0.1288100000 
 C        4.5457540000     1.4120900000     0.2630440000 
 C        4.8781290000     2.8940670000     0.1822200000 
 N        3.9100930000     3.6508700000    -0.3745180000 
 O        5.9421640000     3.3256250000     0.5742030000 
 H        1.1477190000    -1.5802640000    -0.4092980000 
 H        0.8867620000     0.0857240000    -0.9540630000 
 H        0.8827480000    -0.2993790000     0.7724190000 
 H        3.3032530000    -0.5388780000    -1.0949410000 
 H        3.3092050000    -0.9460490000     0.6172640000 
 H        2.6492380000     1.4030290000     0.9732940000 
 H        5.0779050000     0.9374560000    -0.5688500000 
 H        5.0088330000     1.0305930000     1.1831980000 
 H        3.0790160000     3.1981270000    -0.7179090000 
 H        4.0777980000     4.6299820000    -0.5229360000 
*
