! RI PBE def2-SVP def2-SVP/J NBO PAL2
% maxcore 2000
% output
    # printlevel mini
    print[ P_Basis ] 0
    print[ P_SCFInfo ] 1
    print[ P_SCFIterInfo ] 1
    print[ P_OrbEn ] 0
    print[ P_Cartesian ] 0
end
*xyz 0 1
 C        0.9500930000    -1.2705700000    -0.9775680000 
 C        2.2821720000    -0.6311930000    -0.6468330000 
 N        3.3094220000    -1.0536900000    -1.5745110000 
 C        4.5879930000    -0.4207640000    -1.3486080000 
 C        5.5796240000    -0.8200510000    -2.4108140000 
 O        5.1229760000    -0.3427010000    -3.6536920000 
 C        5.9530020000    -0.7226230000    -4.7146130000 
 H        0.1845630000    -0.9727850000    -0.2578910000 
 H        1.0331450000    -2.3592740000    -0.9677020000 
 H        0.6060210000    -0.9679640000    -1.9711160000 
 H        2.5939660000    -0.9299330000     0.3609760000 
 H        2.1693260000     0.4681410000    -0.6197600000 
 H        3.0176010000    -0.8566800000    -2.5253520000 
 H        4.9766190000    -0.7403020000    -0.3749000000 
 H        4.5225190000     0.6819800000    -1.3214840000 
 H        5.6725170000    -1.9159700000    -2.4396550000 
 H        6.5697280000    -0.3973350000    -2.1816530000 
 H        5.5260040000    -0.3157570000    -5.6317660000 
 H        6.0168990000    -1.8158940000    -4.8056430000 
 H        6.9710210000    -0.3266340000    -4.5914050000 
*
