! RI PBE def2-SVP def2-SVP/J NBO PAL2
% maxcore 2000
% output
    # printlevel mini
    print[ P_Basis ] 0
    print[ P_SCFInfo ] 1
    print[ P_SCFIterInfo ] 1
    print[ P_OrbEn ] 0
    print[ P_Cartesian ] 0
end
*xyz 0 1
 C        0.9155830000     0.0680490000    -0.0091140000 
 C        2.4075720000    -0.0162080000     0.0650820000 
 N        2.8747680000    -0.8318420000     1.0294300000 
 C        3.1739630000     0.7004830000    -0.8030580000 
 C        4.6118210000     0.7449970000    -0.8814260000 
 O        5.2587170000    -0.0373150000     0.0400780000 
 O        5.2547290000     1.3971230000    -1.6704350000 
 H        0.4865730000    -0.9207260000    -0.1968190000 
 H        0.5986960000     0.7392930000    -0.8040060000 
 H        0.5065640000     0.4324770000     0.9379110000 
 H        2.2388180000    -1.3233410000     1.6270970000 
 H        3.8664090000    -0.9479240000     1.1505890000 
 H        2.6742310000     1.3198790000    -1.5329130000 
 H        6.1995440000     0.0960540000    -0.1355270000 
*
