! RI PBE def2-SVP def2-SVP/J NBO PAL2
% maxcore 2000
% output
    # printlevel mini
    print[ P_Basis ] 0
    print[ P_SCFInfo ] 1
    print[ P_SCFIterInfo ] 1
    print[ P_OrbEn ] 0
    print[ P_Cartesian ] 0
end
*xyz 0 1
 C        1.6481660000    -0.1740080000     1.0638210000 
 C        3.0903210000    -0.2500730000     0.6114830000 
 N        3.2450110000     0.3350320000    -0.7107090000 
 C        4.5974090000     0.3507410000    -1.1858690000 
 C        5.5042200000     1.3633110000    -0.5150940000 
 O        6.7961980000     1.1539340000    -0.8155040000 
 O        5.1333720000     2.2746050000     0.1732780000 
 H        1.5220460000    -0.6500350000     2.0383260000 
 H        0.9914020000    -0.6693910000     0.3457390000 
 H        1.3235550000     0.8660770000     1.1601990000 
 H        3.4015610000    -1.2990100000     0.5465340000 
 H        3.7369400000     0.2303210000     1.3628070000 
 H        2.8834630000     1.2822530000    -0.7004220000 
 H        4.6240980000     0.5807090000    -2.2581170000 
 H        5.0454260000    -0.6418160000    -1.0841110000 
 H        7.3020000000     1.8618500000    -0.3914720000 
*
