! RI PBE def2-SVP def2-SVP/J NBO PAL2
% maxcore 2000
% output
    # printlevel mini
    print[ P_Basis ] 0
    print[ P_SCFInfo ] 1
    print[ P_SCFIterInfo ] 1
    print[ P_OrbEn ] 0
    print[ P_Cartesian ] 0
end
*xyz 0 1
 C        2.2116740000     1.3737000000    -0.0630780000 
 C        3.3759440000     0.7441510000     0.0641210000 
 N        3.4562170000    -0.6298620000     0.2350780000 
 C        4.6092770000    -1.1435990000     0.3476730000 
 N        4.7717440000    -2.4936430000     0.5192850000 
 C        5.9800880000    -3.1223650000     0.6483080000 
 O        6.1088350000    -4.3075590000     0.7983930000 
 H        2.1737830000     2.4467120000    -0.1955120000 
 H        1.2802140000     0.8213340000    -0.0361210000 
 H        4.3127300000     1.3088500000     0.0358910000 
 H        5.5467160000    -0.5759250000     0.3191140000 
 H        3.9369850000    -3.0645700000     0.5527000000 
 H        6.8311020000    -2.4188140000     0.5994570000 
*
