! RI PBE def2-SVP def2-SVP/J NBO PAL2
% maxcore 2000
% output
    # printlevel mini
    print[ P_Basis ] 0
    print[ P_SCFInfo ] 1
    print[ P_SCFIterInfo ] 1
    print[ P_OrbEn ] 0
    print[ P_Cartesian ] 0
end
*xyz 0 1
 C        2.5972880000     0.8759760000    -0.5484790000 
 C        2.2972090000    -0.1417330000     0.2480850000 
 N        3.1466060000    -1.1163160000     0.8030040000 
 C        2.5389410000    -2.0977100000     1.6275230000 
 N        3.0647570000    -3.0616380000     2.2334000000 
 C        4.5020000000    -1.1090280000     0.5517320000 
 O        5.2937490000    -1.9058620000     0.9875230000 
 H        1.7947530000     1.5233320000    -0.8733780000 
 H        3.5900800000     1.1144340000    -0.9039780000 
 H        1.2660980000    -0.2933150000     0.5470690000 
 H        1.4627110000    -1.9304320000     1.7013910000 
 H        4.0706750000    -3.0991640000     2.0779500000 
 H        4.8073130000    -0.2824240000    -0.1046410000 
*
