! RI PBE def2-SVP def2-SVP/J NBO PAL2
% maxcore 2000
% output
    # printlevel mini
    print[ P_Basis ] 0
    print[ P_SCFInfo ] 1
    print[ P_SCFIterInfo ] 1
    print[ P_OrbEn ] 0
    print[ P_Cartesian ] 0
end
*xyz 0 1
 C        1.0813550000    -0.0694730000    -0.0487380000 
 C        2.5925390000     0.1056980000     0.0401840000 
 N        3.3037360000    -0.4183760000    -1.1237840000 
 C        2.9640140000     1.5872420000     0.1651380000 
 N        2.6731080000     2.3201170000    -1.0587280000 
 C        3.1335240000    -0.6468750000     1.2616740000 
 O        4.5343410000    -0.6664580000     1.2680870000 
 H        0.6760140000     0.4554520000    -0.9175440000 
 H        0.5807810000     0.3090730000     0.8479900000 
 H        0.8214710000    -1.1270310000    -0.1522480000 
 H        3.2680080000     0.2804640000    -1.8601790000 
 H        2.8668910000    -1.2647580000    -1.4681640000 
 H        4.0387650000     1.6426880000     0.3498790000 
 H        2.4607730000     1.9944510000     1.0531620000 
 H        3.2275940000     3.1626060000    -1.1179110000 
 H        1.7016430000     2.5972840000    -1.1058720000 
 H        2.7234760000    -1.6701670000     1.2526510000 
 H        2.7944920000    -0.1674680000     2.1858180000 
 H        4.7656160000    -0.7584790000     0.3285740000 
*
