! RI PBE def2-SVP def2-SVP/J NBO PAL2
% maxcore 2000
% output
    # printlevel mini
    print[ P_Basis ] 0
    print[ P_SCFInfo ] 1
    print[ P_SCFIterInfo ] 1
    print[ P_OrbEn ] 0
    print[ P_Cartesian ] 0
end
*xyz 0 1
 C        2.9796740000     0.8527000000     1.4645550000 
 C        2.7377290000     0.2024430000     0.1079980000 
 N        3.3657210000     0.9001870000    -1.0109430000 
 C        3.1398090000    -1.2804210000     0.0777020000 
 N        2.8702510000    -1.9135240000    -1.2077020000 
 C        4.6126170000    -1.5305210000     0.4015780000 
 O        4.9163780000    -2.8905450000     0.2512800000 
 H        2.5583610000     1.8608780000     1.4880150000 
 H        4.0485110000     0.9365880000     1.6793800000 
 H        2.5200610000     0.2774770000     2.2735580000 
 H        1.6594740000     0.2230150000    -0.0920940000 
 H        4.3312420000     1.1234980000    -0.7995300000 
 H        2.8962040000     1.7772260000    -1.1947320000 
 H        2.5537570000    -1.8090110000     0.8379010000 
 H        3.0759200000    -1.2387110000    -1.9397700000 
 H        1.8958170000    -2.1699920000    -1.2931310000 
 H        4.8370390000    -1.2503550000     1.4336330000 
 H        5.2469730000    -0.9155610000    -0.2583140000 
 H        4.3938540000    -3.1576810000    -0.5223860000 
*
