! RI PBE def2-SVP def2-SVP/J NBO PAL2
% maxcore 2000
% output
    # printlevel mini
    print[ P_Basis ] 0
    print[ P_SCFInfo ] 1
    print[ P_SCFIterInfo ] 1
    print[ P_OrbEn ] 0
    print[ P_Cartesian ] 0
end
*xyz 0 1
 C        0.8430440000    -0.0521070000     0.3167540000 
 C        2.3298180000     0.0306420000     0.0071540000 
 N        3.0967370000    -1.1488650000     0.4011950000 
 C        2.5640820000     0.2791330000    -1.4764000000 
 N        3.9726340000     0.3614630000    -1.7553690000 
 C        4.5069840000     1.2170060000    -2.6461210000 
 O        3.8831000000     1.9922830000    -3.3377130000 
 H        0.6775250000    -0.2145950000     1.3844120000 
 H        0.3811410000    -0.8834660000    -0.2253010000 
 H        0.3220390000     0.8654160000     0.0304180000 
 H        2.7621010000     0.8775650000     0.5520470000 
 H        2.6489350000    -1.9896650000     0.0507160000 
 H        3.1321970000    -1.2347120000     1.4091370000 
 H        2.0982260000     1.2114240000    -1.7989590000 
 H        2.0987470000    -0.5310830000    -2.0567820000 
 H        4.5670470000    -0.2438910000    -1.2094520000 
 H        5.6104550000     1.1424510000    -2.6852470000 
*
