! RI PBE def2-SVP def2-SVP/J NBO PAL2
% maxcore 2000
% output
    # printlevel mini
    print[ P_Basis ] 0
    print[ P_SCFInfo ] 1
    print[ P_SCFIterInfo ] 1
    print[ P_OrbEn ] 0
    print[ P_Cartesian ] 0
end
*xyz 0 1
 C        2.6448840000    -0.7516090000    -0.7758210000 
 C        3.8860670000    -0.0218400000    -0.3071340000 
 N        3.6596930000     0.6369900000     0.9550290000 
 C        4.6315240000     1.2909970000     1.4627170000 
 N        5.8845950000     1.4712390000     0.9889430000 
 C        4.3614860000     1.9598930000     2.7692420000 
 O        5.1872280000     2.6076620000     3.3573430000 
 H        2.8201440000    -1.2494830000    -1.7322770000 
 H        1.8148940000    -0.0527530000    -0.8957330000 
 H        2.3460180000    -1.5036430000    -0.0431640000 
 H        4.1932200000     0.7139440000    -1.0688570000 
 H        4.7232500000    -0.7339700000    -0.2180240000 
 H        6.1909830000     1.0740010000     0.1221930000 
 H        6.5181820000     2.0262570000     1.5389560000 
 H        3.3333320000     1.8009940000     3.1391970000 
*
