! RI PBE def2-SVP def2-SVP/J NBO PAL2
% maxcore 2000
% output
    # printlevel mini
    print[ P_Basis ] 0
    print[ P_SCFInfo ] 1
    print[ P_SCFIterInfo ] 1
    print[ P_OrbEn ] 0
    print[ P_Cartesian ] 0
end
*xyz 0 1
 C        2.3619290000     0.1095960000     0.1588880000 
 C        3.8094860000    -0.3197990000     0.0023230000 
 N        4.5747900000     0.6723490000    -0.7090290000 
 C        5.2064580000     0.3332580000    -1.7578860000 
 N        6.0045760000     1.2318720000    -2.3900830000 
 C        6.1752510000     1.2220670000    -3.8149700000 
 O        5.8700970000     2.5248910000    -1.8992200000 
 H        1.8029790000    -0.6210950000     0.7484540000 
 H        1.8782560000     0.2086510000    -0.8156780000 
 H        2.3036300000     1.0765510000     0.6627450000 
 H        3.8566890000    -1.3005370000    -0.4967610000 
 H        4.2514160000    -0.4515470000     0.9971670000 
 H        5.2079830000    -0.6658530000    -2.2047030000 
 H        6.2805740000     0.1863270000    -4.1410290000 
 H        7.0864680000     1.7633670000    -4.0716300000 
 H        5.3267980000     1.6865240000    -4.3319070000 
 H        5.2600290000     2.3764700000    -1.1414910000 
*
