! RI PBE def2-SVP def2-SVP/J NBO PAL2
% maxcore 2000
% output
    # printlevel mini
    print[ P_Basis ] 0
    print[ P_SCFInfo ] 1
    print[ P_SCFIterInfo ] 1
    print[ P_OrbEn ] 0
    print[ P_Cartesian ] 0
end
*xyz 0 1
 C        3.2515970000    -0.4253380000    -1.4047500000 
 C        4.1745320000    -0.3716950000    -0.2059150000 
 N        3.8710950000     0.7815640000     0.6239350000 
 C        4.5564340000     0.9605840000     1.6627640000 
 N        4.3261970000     2.0328680000     2.4983920000 
 C        5.0272450000     2.2916660000     3.6401530000 
 O        4.8211880000     3.2301490000     4.3639420000 
 H        3.4778650000    -1.2917120000    -2.0304400000 
 H        3.3575190000     0.4763940000    -2.0111570000 
 H        2.2099990000    -0.4926150000    -1.0844020000 
 H        5.2173190000    -0.3274780000    -0.5461420000 
 H        4.0717450000    -1.2948920000     0.3791250000 
 H        5.3745900000     0.3115460000     2.0002770000 
 H        3.5839040000     2.6708700000     2.2434300000 
 H        5.8154800000     1.5404790000     3.8319980000 
*
