! RI PBE def2-SVP def2-SVP/J NBO PAL2
% maxcore 2000
% output
    # printlevel mini
    print[ P_Basis ] 0
    print[ P_SCFInfo ] 1
    print[ P_SCFIterInfo ] 1
    print[ P_OrbEn ] 0
    print[ P_Cartesian ] 0
end
*xyz 0 1
 C        3.3986680000    -1.0699000000     1.0871800000 
 C        3.2078140000     0.2647680000     0.3887990000 
 N        3.4211520000     1.3989510000     1.2716530000 
 C        2.4164660000     1.8735990000     2.1035390000 
 N        1.2335370000     1.4535070000     2.2395650000 
 C        4.6554570000     2.0014240000     1.2988180000 
 O        5.5986220000     1.6594350000     0.6339860000 
 H        3.2109070000    -1.8871390000     0.3878790000 
 H        2.7188500000    -1.1835860000     1.9338820000 
 H        4.4225000000    -1.1647130000     1.4524690000 
 H        2.2043180000     0.3523340000    -0.0358880000 
 H        3.9233210000     0.3713400000    -0.4264560000 
 H        2.7409390000     2.7284060000     2.6990050000 
 H        1.0287610000     0.6519100000     1.6458840000 
 H        4.6931970000     2.8487450000     2.0052850000 
*
