! RI PBE def2-SVP def2-SVP/J NBO PAL2
% maxcore 2000
% output
    # printlevel mini
    print[ P_Basis ] 0
    print[ P_SCFInfo ] 1
    print[ P_SCFIterInfo ] 1
    print[ P_OrbEn ] 0
    print[ P_Cartesian ] 0
end
*xyz 0 1
 C        3.1473430000    -1.4739190000     0.1674720000 
 C        2.5185210000    -0.4238420000     1.0553050000 
 N        3.2452340000     0.8403620000     1.0347070000 
 C        2.5243680000     1.9052870000     1.7045980000 
 N        4.5215030000     0.7066440000     1.5492310000 
 C        5.6243260000     0.9307220000     0.7945340000 
 O        6.7568700000     0.8353350000     1.2020930000 
 H        2.5501160000    -2.3878060000     0.1871670000 
 H        4.1556630000    -1.7268900000     0.4996320000 
 H        3.2050860000    -1.1217920000    -0.8644680000 
 H        2.4262930000    -0.8017830000     2.0895730000 
 H        1.5045550000    -0.2037640000     0.7112820000 
 H        1.5562380000     2.0427820000     1.2203300000 
 H        3.0908610000     2.8326890000     1.6216390000 
 H        2.3496150000     1.6940790000     2.7728600000 
 H        4.6517040000     0.4514570000     2.5246010000 
 H        5.3542240000     1.2100300000    -0.2393670000 
*
