! RI PBE def2-SVP def2-SVP/J NBO PAL2
% maxcore 2000
% output
    # printlevel mini
    print[ P_Basis ] 0
    print[ P_SCFInfo ] 1
    print[ P_SCFIterInfo ] 1
    print[ P_OrbEn ] 0
    print[ P_Cartesian ] 0
end
*xyz 0 1
 C        1.1302660000    -0.1526640000     0.4985910000 
 C        2.4888430000    -0.1221150000    -0.1682990000 
 N        3.5074690000    -0.6119190000     0.7214570000 
 C        4.8132320000    -0.7261120000     0.3685780000 
 N        5.3752860000    -0.3483610000    -0.7139000000 
 C        5.6850720000    -1.3295370000     1.4490440000 
 O        5.0080320000    -2.2600470000     2.2724810000 
 H        0.3641970000     0.2273570000    -0.1787740000 
 H        1.1227430000     0.4649400000     1.3997240000 
 H        0.8515950000    -1.1720300000     0.7790390000 
 H        2.7306060000     0.9056540000    -0.4665100000 
 H        2.4682010000    -0.7189120000    -1.0912500000 
 H        3.2322540000    -1.0992350000     1.5593860000 
 H        4.7174350000     0.0999410000    -1.3482030000 
 H        6.0191890000    -0.5264390000     2.1113020000 
 H        6.5678690000    -1.7567040000     0.9680460000 
 H        4.9236220000    -3.0849270000     1.7874980000 
*
