! RI PBE def2-SVP def2-SVP/J NBO PAL2
% maxcore 2000
% output
    # printlevel mini
    print[ P_Basis ] 0
    print[ P_SCFInfo ] 1
    print[ P_SCFIterInfo ] 1
    print[ P_OrbEn ] 0
    print[ P_Cartesian ] 0
end
*xyz 0 1
 C        1.7122500000    -1.0116400000     0.5422760000 
 C        2.7524830000    -0.4148920000    -0.3815940000 
 N        3.4719300000     0.6386350000     0.2799750000 
 C        4.4651700000     1.3493620000    -0.3168820000 
 N        4.9301760000     1.2391780000    -1.4955600000 
 O        4.9474440000     2.2631420000     0.5468450000 
 C        5.9949990000     3.0802350000     0.0538100000 
 H        1.1684240000    -1.8107250000     0.0367490000 
 H        0.9864400000    -0.2569370000     0.8556220000 
 H        2.1776750000    -1.4348490000     1.4360520000 
 H        2.2643200000    -0.0270910000    -1.2855890000 
 H        3.4489410000    -1.1985020000    -0.7083970000 
 H        3.2442430000     0.8761010000     1.2289880000 
 H        4.4608970000     0.5078250000    -2.0163320000 
 H        6.8557220000     2.4754110000    -0.2365070000 
 H        6.2564390000     3.7485090000     0.8729390000 
 H        5.6658560000     3.6512270000    -0.8160030000 
*
