! RI PBE def2-SVP def2-SVP/J NBO PAL2
% maxcore 2000
% output
    # printlevel mini
    print[ P_Basis ] 0
    print[ P_SCFInfo ] 1
    print[ P_SCFIterInfo ] 1
    print[ P_OrbEn ] 0
    print[ P_Cartesian ] 0
end
*xyz 0 1
 C        0.9449170000     1.5320680000     1.3496600000 
 C        2.1415790000     1.0522040000     1.0256380000 
 N        3.3442710000     1.6024860000     1.4291440000 
 C        4.5641930000     1.0811860000     1.0761900000 
 O        4.6751410000     0.0940030000     0.3804760000 
 C        5.7194670000     1.8360650000     1.6235980000 
 C        6.9610040000     1.4493480000     1.3660080000 
 H        0.0510220000     1.0414770000     0.9921290000 
 H        0.8202810000     2.4129990000     1.9702010000 
 H        2.2732360000     0.1732440000     0.4065770000 
 H        3.3245300000     2.4247580000     2.0095630000 
 H        5.5226330000     2.7102820000     2.2384260000 
 H        7.1334020000     0.5736600000     0.7498330000 
 H        7.8177330000     1.9855000000     1.7552560000 
*
