! RI PBE def2-SVP def2-SVP/J NBO PAL2
% maxcore 2000
% output
    # printlevel mini
    print[ P_Basis ] 0
    print[ P_SCFInfo ] 1
    print[ P_SCFIterInfo ] 1
    print[ P_OrbEn ] 0
    print[ P_Cartesian ] 0
end
*xyz 0 1
 C        0.8903700000    -0.0449100000    -0.0229430000 
 C        2.2178110000    -0.0911750000     0.0031410000 
 N        3.0438630000     0.8200920000    -0.6328840000 
 C        4.4084720000     0.7454910000    -0.5875010000 
 O        5.0232020000    -0.1123950000     0.0047340000 
 C        5.0637850000     1.8098560000    -1.3289540000 
 C        5.6356710000     2.6756090000    -1.9322570000 
 H        0.3144960000    -0.7947780000     0.4999880000 
 H        0.3456890000     0.7267550000    -0.5559080000 
 H        2.7681910000    -0.8586560000     0.5331660000 
 H        2.6321130000     1.5765820000    -1.1557460000 
 H        6.1550360000     3.4386290000    -2.4642350000 
*
