! RI PBE def2-SVP def2-SVP/J NBO PAL2
% maxcore 2000
% output
    # printlevel mini
    print[ P_Basis ] 0
    print[ P_SCFInfo ] 1
    print[ P_SCFIterInfo ] 1
    print[ P_OrbEn ] 0
    print[ P_Cartesian ] 0
end
*xyz 0 1
 C        1.0054280000     0.1670760000    -0.0732660000 
 C        2.5329740000     0.0913900000    -0.0356500000 
 N        3.1706890000     1.3472690000     0.3840160000 
 C        2.9763970000    -0.9695250000     0.9902000000 
 O        4.3606800000    -0.9890660000     1.1513490000 
 C        3.0378050000    -0.2552350000    -1.3647950000 
 C        3.4199890000    -0.5362000000    -2.4668830000 
 H        0.6229520000     0.4419850000     0.9138560000 
 H        0.5719020000    -0.7949970000    -0.3545410000 
 H        0.6764160000     0.9145860000    -0.7970170000 
 H        2.6322850000     1.7754410000     1.1289350000 
 H        3.2171220000     2.0036630000    -0.3842880000 
 H        2.6519220000    -1.9608570000     0.6658890000 
 H        2.4625590000    -0.7377370000     1.9384860000 
 H        4.6307830000    -0.0600450000     1.0945100000 
 H        3.7713960000    -0.7949470000    -3.4377010000 
*
