! RI PBE def2-SVP def2-SVP/J NBO PAL2
% maxcore 2000
% output
    # printlevel mini
    print[ P_Basis ] 0
    print[ P_SCFInfo ] 1
    print[ P_SCFIterInfo ] 1
    print[ P_OrbEn ] 0
    print[ P_Cartesian ] 0
end
*xyz 0 1
 C        0.9181710000     0.1114010000     0.1628220000 
 C        2.4346710000     0.0624620000     0.1091650000 
 N        3.0200580000    -1.2634020000     0.2597090000 
 C        3.0153980000     0.6574660000    -1.1863830000 
 O        4.4174110000     0.6255490000    -1.1295070000 
 C        2.5010760000    -0.0465720000    -2.3692890000 
 C        2.0831890000    -0.6418490000    -3.3251850000 
 H        0.5580620000    -0.2610190000     1.1248050000 
 H        0.4820910000    -0.5029860000    -0.6289600000 
 H        0.5482290000     1.1331620000     0.0383170000 
 H        2.8484430000     0.6819690000     0.9116260000 
 H        2.5598320000    -1.9255150000    -0.3555770000 
 H        2.9264090000    -1.6031230000     1.2072070000 
 H        2.7174640000     1.7088940000    -1.2563050000 
 H        4.6180130000    -0.2353460000    -0.7279330000 
 H        1.7265830000    -1.1556910000    -4.1866120000 
*
