! RI PBE def2-SVP def2-SVP/J NBO PAL2
% maxcore 2000
% output
    # printlevel mini
    print[ P_Basis ] 0
    print[ P_SCFInfo ] 1
    print[ P_SCFIterInfo ] 1
    print[ P_OrbEn ] 0
    print[ P_Cartesian ] 0
end
*xyz 0 1
 C        0.5507670000     0.2163210000     0.0112100000 
 C        2.0484110000     0.1624950000     0.2757380000 
 N        2.4115370000    -0.2229080000     1.6333780000 
 C        2.7583770000    -0.7969750000    -0.6610250000 
 O        2.5196440000    -0.3998850000    -1.9951260000 
 C        3.0837350000    -1.1440550000    -2.9617630000 
 C        3.8479190000    -2.2241720000    -2.8270520000 
 H        0.0677850000     0.9306320000     0.6828530000 
 H        0.0979980000    -0.7664720000     0.1807110000 
 H        0.3370500000     0.5132170000    -1.0173930000 
 H        2.4748430000     1.1564990000     0.1001670000 
 H        1.9323580000    -1.0788400000     1.8924900000 
 H        2.1097080000     0.4850440000     2.2908070000 
 H        2.3872040000    -1.8216350000    -0.5095110000 
 H        3.8324880000    -0.7904290000    -0.4475700000 
 H        2.8325190000    -0.7425050000    -3.9380280000 
 H        4.1203430000    -2.6487310000    -1.8707880000 
 H        4.2231940000    -2.7071030000    -3.7184070000 
*
