! RI PBE def2-SVP def2-SVP/J NBO PAL2
% maxcore 2000
% output
    # printlevel mini
    print[ P_Basis ] 0
    print[ P_SCFInfo ] 1
    print[ P_SCFIterInfo ] 1
    print[ P_OrbEn ] 0
    print[ P_Cartesian ] 0
end
*xyz 0 1
 C        1.0443520000    -0.4130620000     0.4357580000 
 C        2.4457890000     0.0676480000     0.0633650000 
 N        2.4878010000     0.6531800000    -1.2665540000 
 C        2.7122530000    -0.0951930000    -2.3669820000 
 O        2.8799870000    -1.2932580000    -2.3647940000 
 C        2.9676150000     1.0213250000     1.0357050000 
 C        3.3668820000     1.8164430000     1.8407650000 
 H        0.7078680000    -1.1445150000    -0.2999140000 
 H        0.3444840000     0.4241780000     0.4573180000 
 H        1.0547330000    -0.8814630000     1.4211790000 
 H        3.1100650000    -0.8021810000     0.0275680000 
 H        2.3684740000     1.6473570000    -1.3622480000 
 H        2.7287830000     0.5113630000    -3.2914230000 
 H        3.7317040000     2.5134860000     2.5579470000 
*
