! RI PBE def2-SVP def2-SVP/J NBO PAL2
% maxcore 2000
% output
    # printlevel mini
    print[ P_Basis ] 0
    print[ P_SCFInfo ] 1
    print[ P_SCFIterInfo ] 1
    print[ P_OrbEn ] 0
    print[ P_Cartesian ] 0
end
*xyz 0 1
 C        2.5646870000     0.2927530000    -1.5541540000 
 C        2.6746390000    -0.0158080000    -0.0704700000 
 N        3.2339450000     1.0722840000     0.6962140000 
 C        4.5471180000     1.1256800000     1.0382940000 
 O        5.3370920000     0.2393150000     0.7706920000 
 C        4.9333750000     2.3578290000     1.7804850000 
 C        6.1832890000     2.5437840000     2.1783650000 
 H        2.1375810000    -0.5583480000    -2.0899670000 
 H        3.5503490000     0.5020230000    -1.9736470000 
 H        1.9231660000     1.1594280000    -1.7346050000 
 H        3.3303210000    -0.8728800000     0.0880080000 
 H        1.6931650000    -0.2653500000     0.3434660000 
 H        2.6562830000     1.8699510000     0.8976470000 
 H        4.1653040000     3.0988450000     1.9871390000 
 H        6.9314300000     1.7890960000     1.9610600000 
 H        6.4847560000     3.4323960000     2.7194820000 
*
