! RI PBE def2-SVP def2-SVP/J NBO PAL2
% maxcore 2000
% output
    # printlevel mini
    print[ P_Basis ] 0
    print[ P_SCFInfo ] 1
    print[ P_SCFIterInfo ] 1
    print[ P_OrbEn ] 0
    print[ P_Cartesian ] 0
end
*xyz 0 1
 C        0.8578870000    -0.2284360000     0.3769230000 
 C        2.3195350000     0.0469560000     0.0683160000 
 N        2.5260490000     1.2859670000    -0.6473250000 
 C        2.6348450000     1.3319970000    -1.9956520000 
 O        2.6152570000     0.3589250000    -2.7210900000 
 C        2.7930950000     2.6831860000    -2.5210210000 
 C        2.9218950000     3.7816200000    -2.9874140000 
 H        0.7558510000    -1.1716980000     0.9185740000 
 H        0.2792990000    -0.2995950000    -0.5457330000 
 H        0.4255270000     0.5630910000     0.9942140000 
 H        2.7291860000    -0.7468590000    -0.5575360000 
 H        2.9085290000     0.0820180000     0.9888760000 
 H        2.5028380000     2.1596370000    -0.1493460000 
 H        3.0376070000     4.7500800000    -3.4153860000 
*
