! RI PBE def2-SVP def2-SVP/J NBO PAL2
% maxcore 2000
% output
    # printlevel mini
    print[ P_Basis ] 0
    print[ P_SCFInfo ] 1
    print[ P_SCFIterInfo ] 1
    print[ P_OrbEn ] 0
    print[ P_Cartesian ] 0
end
*xyz 0 1
 C        0.7377970000     0.0005620000     0.0734130000 
 C        2.0645190000    -0.0312140000    -0.0792400000 
 N        2.7113900000     0.0657900000    -1.3027400000 
 C        4.0632670000     0.0402460000    -1.5277790000 
 O        4.5413530000     0.1308740000    -2.6273400000 
 C        2.8997680000    -0.1738670000     1.0774720000 
 N        3.5507750000    -0.2889940000     2.0193370000 
 H        0.0763830000     0.1071560000    -0.7774760000 
 H        0.3026100000    -0.0805030000     1.0579960000 
 H        2.1365630000     0.1667010000    -2.1270420000 
 H        4.6567840000    -0.0710490000    -0.6057910000 
*
