! RI PBE def2-SVP def2-SVP/J NBO PAL2
% maxcore 2000
% output
    # printlevel mini
    print[ P_Basis ] 0
    print[ P_SCFInfo ] 1
    print[ P_SCFIterInfo ] 1
    print[ P_OrbEn ] 0
    print[ P_Cartesian ] 0
end
*xyz 0 1
 C        3.3641790000     1.1682370000    -1.0564880000 
 C        2.7358140000     0.2614150000    -0.0034010000 
 N        1.2784950000     0.2568310000    -0.0253570000 
 C        3.1895270000    -1.1881100000    -0.1159130000 
 O        2.7964700000    -1.6911640000    -1.3743270000 
 C        4.6837860000    -1.3985640000     0.0677020000 
 N        4.9759490000    -2.8091540000    -0.1591570000 
 H        2.9539800000     2.1779780000    -0.9712110000 
 H        3.1492560000     0.7922080000    -2.0587990000 
 H        4.4491110000     1.2491470000    -0.9440750000 
 H        3.0448690000     0.6088770000     0.9911570000 
 H        0.9654710000    -0.2025490000    -0.8737900000 
 H        0.9233310000     1.2049110000    -0.0514300000 
 H        2.6627370000    -1.7401100000     0.6806980000 
 H        3.3336570000    -2.4873050000    -1.4997170000 
 H        4.9936970000    -1.0283930000     1.0552360000 
 H        5.2237820000    -0.8240550000    -0.6891510000 
 H        4.7104790000    -3.3701390000     0.6409850000 
 H        5.9599100000    -2.9647500000    -0.3280620000 
*
