! RI PBE def2-SVP def2-SVP/J NBO PAL2
% maxcore 2000
% output
    # printlevel mini
    print[ P_Basis ] 0
    print[ P_SCFInfo ] 1
    print[ P_SCFIterInfo ] 1
    print[ P_OrbEn ] 0
    print[ P_Cartesian ] 0
end
*xyz 0 1
 C        0.7581160000    -0.2514040000     0.5318880000 
 C        2.1947790000     0.0088540000     0.1160920000 
 N        2.3051040000     0.9769030000    -0.9565510000 
 C        2.4579500000     0.6097050000    -2.2422990000 
 O        2.5575010000    -0.5191930000    -2.6607870000 
 C        2.5084360000     1.7650700000    -3.1605940000 
 N        2.5457310000     2.6483800000    -3.8949950000 
 H        0.7290370000    -0.9806210000     1.3442880000 
 H        0.1806420000    -0.6486140000    -0.3046070000 
 H        0.2729440000     0.6626050000     0.8827200000 
 H        2.6615000000    -0.9088110000    -0.2430630000 
 H        2.7843200000     0.3729710000     0.9612890000 
 H        2.1922500000     1.9570450000    -0.7549920000 
*
