! RI PBE def2-SVP def2-SVP/J NBO PAL2
% maxcore 2000
% output
    # printlevel mini
    print[ P_Basis ] 0
    print[ P_SCFInfo ] 1
    print[ P_SCFIterInfo ] 1
    print[ P_OrbEn ] 0
    print[ P_Cartesian ] 0
end
*xyz 0 1
 C        0.4586000000     1.4254720000    -0.1421290000 
 C        1.2776140000     0.3676700000    -0.1206020000 
 N        1.0547860000    -0.8761060000     0.4428070000 
 C       -0.0569360000    -1.2967920000     1.1046560000 
 O       -1.0441290000    -0.6343410000     1.3066030000 
 C        2.6019600000     0.4726960000    -0.7604460000 
 O        3.3943990000    -0.4361630000    -0.7822170000 
 H       -0.5224080000     1.4129310000     0.3077230000 
 H        0.8067650000     2.3256560000    -0.6346050000 
 H        1.8286460000    -1.5188850000     0.3308310000 
 H        0.0451830000    -2.3422380000     1.4472120000 
 H        2.8194110000     1.4530090000    -1.2233240000 
*
