! RI PBE def2-SVP def2-SVP/J NBO PAL2
% maxcore 2000
% output
    # printlevel mini
    print[ P_Basis ] 0
    print[ P_SCFInfo ] 1
    print[ P_SCFIterInfo ] 1
    print[ P_OrbEn ] 0
    print[ P_Cartesian ] 0
end
*xyz 0 1
 C        1.3644670000    -0.3054960000    -0.4789590000 
 C        2.5769470000     0.2296230000    -0.4816230000 
 N        3.1785700000     0.8623430000    -1.5851330000 
 C        2.4239470000     1.5227650000    -2.5531090000 
 O        2.8748880000     1.9914010000    -3.5603390000 
 C        4.5731210000     0.9268050000    -1.6470610000 
 O        5.2876980000     0.4238010000    -0.8258890000 
 H        0.9770480000    -0.7330180000     0.4356220000 
 H        0.7308830000    -0.3516090000    -1.3560550000 
 H        3.2216820000     0.2060140000     0.3880680000 
 H        1.3599420000     1.5830080000    -2.2758880000 
 H        4.9193080000     1.4919620000    -2.5214530000 
*
