! RI PBE def2-SVP def2-SVP/J NBO PAL2
% maxcore 2000
% output
    # printlevel mini
    print[ P_Basis ] 0
    print[ P_SCFInfo ] 1
    print[ P_SCFIterInfo ] 1
    print[ P_OrbEn ] 0
    print[ P_Cartesian ] 0
end
*xyz 0 1
 C        1.0861000000     0.4036530000    -0.2499880000 
 C        2.3083080000    -0.0234850000     0.0466530000 
 N        3.1441820000    -0.6727290000    -0.8461350000 
 C        4.3875820000    -1.1040220000    -0.5343270000 
 O        4.9440940000    -0.9931910000     0.5364060000 
 C        5.0875540000    -1.7845300000    -1.7033210000 
 O        4.5818180000    -1.9193890000    -2.7823690000 
 H        0.4913520000     0.9033630000     0.5011480000 
 H        0.6488350000     0.2705810000    -1.2332670000 
 H        2.7538580000     0.1046790000     1.0258060000 
 H        2.8407410000    -0.8515670000    -1.7940320000 
 H        6.1048650000    -2.1397530000    -1.4569750000 
*
