! RI PBE def2-SVP def2-SVP/J NBO PAL2
% maxcore 2000
% output
    # printlevel mini
    print[ P_Basis ] 0
    print[ P_SCFInfo ] 1
    print[ P_SCFIterInfo ] 1
    print[ P_OrbEn ] 0
    print[ P_Cartesian ] 0
end
*xyz 0 1
 C        1.3480740000     0.7133360000     1.0833890000 
 C        2.4902820000     0.0319940000     0.3363190000 
 N        3.1766370000    -0.9927080000     1.1118820000 
 C        2.0457100000    -0.6156390000    -0.9688990000 
 O        1.1013280000    -1.6231580000    -0.6693340000 
 C        1.4621630000     0.3495110000    -1.9812790000 
 O        1.0363150000    -0.3471270000    -3.1412530000 
 H        1.7103320000     1.1068030000     2.0366670000 
 H        0.5466510000     0.0005120000     1.2873660000 
 H        0.9266980000     1.5535980000     0.5244360000 
 H        3.2376080000     0.7900100000     0.0681460000 
 H        2.5462790000    -1.7740750000     1.2562990000 
 H        3.4226760000    -0.6355120000     2.0270360000 
 H        2.9456420000    -1.0762460000    -1.4108470000 
 H        0.6787840000    -1.8588080000    -1.5028810000 
 H        2.1885160000     1.1343250000    -2.2278150000 
 H        0.5642500000     0.8240050000    -1.5810280000 
 H        1.8158350000    -0.6462310000    -3.6178120000 
*
