! RI PBE def2-SVP def2-SVP/J NBO PAL2
% maxcore 2000
% output
    # printlevel mini
    print[ P_Basis ] 0
    print[ P_SCFInfo ] 1
    print[ P_SCFIterInfo ] 1
    print[ P_OrbEn ] 0
    print[ P_Cartesian ] 0
end
*xyz 0 1
 C        0.9481690000     0.3797830000    -1.5020730000 
 C        2.3634160000     0.3969520000    -0.9348060000 
 N        3.0637540000     1.6647150000    -1.0814310000 
 C        2.3961510000    -0.0185420000     0.5219840000 
 O        1.6797580000     0.9424690000     1.3187270000 
 C        0.6477000000     0.5104710000     2.0405040000 
 O        0.2391370000    -0.6112100000     2.1099880000 
 H        0.9619560000     0.6329780000    -2.5648490000 
 H        0.3175190000     1.1131130000    -0.9926680000 
 H        0.4811160000    -0.6029960000    -1.3943770000 
 H        2.9573230000    -0.3614660000    -1.4603600000 
 H        2.5785670000     2.3856000000    -0.5588810000 
 H        3.0659200000     1.9562150000    -2.0511840000 
 H        3.4239800000    -0.0116610000     0.8872370000 
 H        1.9507080000    -1.0022660000     0.6676890000 
 H        0.2138350000     1.3639250000     2.5824980000 
*
