! RI PBE def2-SVP def2-SVP/J NBO PAL2
% maxcore 2000
% output
    # printlevel mini
    print[ P_Basis ] 0
    print[ P_SCFInfo ] 1
    print[ P_SCFIterInfo ] 1
    print[ P_OrbEn ] 0
    print[ P_Cartesian ] 0
end
*xyz 0 1
 C        1.0469180000     0.2071050000     0.0687550000 
 C        2.5071160000    -0.0512140000    -0.3032140000 
 N        2.7856020000    -1.4252990000    -0.6109400000 
 C        2.8999940000    -2.3670800000     0.3471660000 
 O        2.7090150000    -2.1745550000     1.5272920000 
 C        2.8917570000     0.8017890000    -1.4802750000 
 O        3.3160370000     0.3670650000    -2.5162540000 
 H        0.7988940000    -0.3715960000     0.9577820000 
 H        0.3839610000    -0.0903070000    -0.7463370000 
 H        0.8842540000     1.2652880000     0.2870310000 
 H        3.1306070000     0.2657570000     0.5454690000 
 H        3.0676910000    -1.6255100000    -1.5595420000 
 H        3.1850690000    -3.3541830000    -0.0605010000 
 H        2.7324850000     1.8891310000    -1.3348330000 
*
