! RI PBE def2-SVP def2-SVP/J NBO PAL2
% maxcore 2000
% output
    # printlevel mini
    print[ P_Basis ] 0
    print[ P_SCFInfo ] 1
    print[ P_SCFIterInfo ] 1
    print[ P_OrbEn ] 0
    print[ P_Cartesian ] 0
end
*xyz 0 1
 C        1.0569850000    -0.1457620000     0.2416000000 
 C        2.4679930000     0.1306750000    -0.2406340000 
 N        2.4910060000     0.9631220000    -1.4372960000 
 C        2.5396330000     2.3357510000    -1.3264970000 
 O        2.5698590000     2.9310970000    -0.2838250000 
 C        2.4489950000     0.3827520000    -2.6863820000 
 O        2.3966290000    -0.8010500000    -2.8823610000 
 H        1.0887370000    -0.7704480000     1.1364510000 
 H        0.4816480000    -0.6747420000    -0.5201740000 
 H        0.5428560000     0.7829900000     0.4951890000 
 H        2.9795080000    -0.7976550000    -0.4952730000 
 H        3.0408580000     0.6609170000     0.5201970000 
 H        2.5515660000     2.8387140000    -2.3092110000 
 H        2.4721360000     1.1287190000    -3.4999030000 
*
