! RI PBE def2-SVP def2-SVP/J NBO PAL2
% maxcore 2000
% output
    # printlevel mini
    print[ P_Basis ] 0
    print[ P_SCFInfo ] 1
    print[ P_SCFIterInfo ] 1
    print[ P_OrbEn ] 0
    print[ P_Cartesian ] 0
end
*xyz 0 1
 C        1.9531070000     1.1279300000    -0.3453310000 
 C        2.6171580000    -0.1975420000    -0.0203280000 
 N        3.4827740000    -0.1182200000     1.1314440000 
 C        4.8051330000    -0.3691920000     1.0820470000 
 O        5.4236590000    -0.6750710000     0.0803810000 
 C        5.5186190000    -0.2698680000     2.4231540000 
 O        4.7476010000     0.2841370000     3.4694330000 
 H        1.2988270000     1.0231180000    -1.2138390000 
 H        2.7011120000     1.8908410000    -0.5705790000 
 H        1.3427060000     1.4841280000     0.4891270000 
 H        3.2440890000    -0.5303820000    -0.8487730000 
 H        1.8582460000    -0.9695820000     0.1473980000 
 H        3.1024630000     0.0847770000     2.0427680000 
 H        6.4525160000     0.2742730000     2.2562770000 
 H        5.7871930000    -1.2872440000     2.7191280000 
 H        4.8538990000     1.2378970000     3.4562830000 
*
