! RI PBE def2-SVP def2-SVP/J NBO PAL2
% maxcore 2000
% output
    # printlevel mini
    print[ P_Basis ] 0
    print[ P_SCFInfo ] 1
    print[ P_SCFIterInfo ] 1
    print[ P_OrbEn ] 0
    print[ P_Cartesian ] 0
end
*xyz 0 1
 C        1.6140350000     0.1734300000     1.0981970000 
 C        2.5218980000     0.1330250000    -0.1179970000 
 N        1.7874340000     0.0824610000    -1.3601780000 
 C        1.7625000000    -0.9873190000    -2.1663990000 
 O        2.3490200000    -2.0403430000    -2.0090330000 
 C        0.8843860000    -0.7904900000    -3.3995260000 
 O        0.2636420000     0.2121560000    -3.6171380000 
 H        2.2097990000     0.2206200000     2.0123920000 
 H        0.9869740000    -0.7189220000     1.1432250000 
 H        0.9611580000     1.0497980000     1.0788890000 
 H        3.1541420000    -0.7557580000    -0.0983220000 
 H        3.1807710000     1.0069770000    -0.1307370000 
 H        1.2166660000     0.8634860000    -1.6497930000 
 H        0.8766960000    -1.6690000000    -4.0714900000 
*
