! RI PBE def2-SVP def2-SVP/J NBO PAL2
% maxcore 2000
% output
    # printlevel mini
    print[ P_Basis ] 0
    print[ P_SCFInfo ] 1
    print[ P_SCFIterInfo ] 1
    print[ P_OrbEn ] 0
    print[ P_Cartesian ] 0
end
*xyz 0 1
 C        2.4597010000     0.3863160000    -0.9934840000 
 C        2.0429460000     0.1148290000     0.2334940000 
 N        2.8566870000    -0.2742920000     1.3119320000 
 C        2.2567440000    -0.5188950000     2.5256740000 
 O        2.8073210000    -0.8578300000     3.5423620000 
 N        4.1876660000    -0.3677010000     1.0255190000 
 C        5.0401150000    -0.7089950000     1.9036700000 
 H        1.7351870000     0.6766660000    -1.7414300000 
 H        3.5034360000     0.3255320000    -1.2666080000 
 H        0.9955530000     0.1770130000     0.5033140000 
 H        1.1651780000    -0.3632400000     2.4621390000 
 H        6.0651140000    -0.7447600000     1.5452830000 
 H        4.8175600000    -0.9539340000     2.9349150000 
*
