! RI PBE def2-SVP def2-SVP/J NBO PAL2
% maxcore 2000
% output
    # printlevel mini
    print[ P_Basis ] 0
    print[ P_SCFInfo ] 1
    print[ P_SCFIterInfo ] 1
    print[ P_OrbEn ] 0
    print[ P_Cartesian ] 0
end
*xyz 0 1
 C        0.8094660000    -0.1459330000    -0.0146570000 
 C        2.3179530000     0.0444000000    -0.0919220000 
 N        2.7561650000     1.4331990000    -0.0426940000 
 C        3.0439980000    -0.6868580000     1.0216780000 
 O        2.7369950000    -2.0687290000     0.9233150000 
 N        3.3087380000    -2.7498840000     1.9651290000 
 C        3.1015990000    -3.9954500000     1.8931000000 
 H        0.3145710000     0.3775960000    -0.8367420000 
 H        0.4220550000     0.2588190000     0.9263170000 
 H        0.5354340000    -1.2016120000    -0.0656310000 
 H        2.6782940000    -0.3704140000    -1.0403680000 
 H        2.3648110000     1.8926890000     0.7728360000 
 H        2.4113240000     1.9373690000    -0.8499860000 
 H        2.7233160000    -0.3111160000     2.0017910000 
 H        4.1217830000    -0.5312480000     0.9263530000 
 H        3.5197760000    -4.6021870000     2.6867890000 
 H        2.5351120000    -4.4535620000     1.0833810000 
*
