! RI PBE def2-SVP def2-SVP/J NBO PAL2
% maxcore 2000
% output
    # printlevel mini
    print[ P_Basis ] 0
    print[ P_SCFInfo ] 1
    print[ P_SCFIterInfo ] 1
    print[ P_OrbEn ] 0
    print[ P_Cartesian ] 0
end
*xyz 0 1
 C        0.9427350000     0.2208630000    -0.4345030000 
 C        2.4042800000     0.0033150000    -0.1059390000 
 N        3.2019450000     0.0472920000    -1.3094730000 
 C        4.5556220000    -0.1235040000    -1.2613930000 
 O        5.1506360000    -0.3190100000    -0.2153810000 
 N        5.2021730000    -0.0614820000    -2.4628150000 
 C        6.6310040000    -0.2281270000    -2.5289260000 
 H        0.3411690000     0.1874770000     0.4749220000 
 H        0.5681840000    -0.5531960000    -1.1102060000 
 H        0.7821890000     1.1952240000    -0.9044760000 
 H        2.5439740000    -0.9609820000     0.3923890000 
 H        2.7554330000     0.7663760000     0.5955790000 
 H        2.7366620000     0.2068730000    -2.1845550000 
 H        4.6903310000     0.1003460000    -3.3093730000 
 H        6.9359410000    -1.2052830000    -2.1468310000 
 H        7.1483760000     0.5351260000    -1.9427600000 
 H        6.9452270000    -0.1444870000    -3.5693600000 
*
