! RI PBE def2-SVP def2-SVP/J NBO PAL2
% maxcore 2000
% output
    # printlevel mini
    print[ P_Basis ] 0
    print[ P_SCFInfo ] 1
    print[ P_SCFIterInfo ] 1
    print[ P_OrbEn ] 0
    print[ P_Cartesian ] 0
end
*xyz 0 1
 C        1.9947500000     1.5470580000    -0.1452860000 
 C        2.4778390000     0.1190680000     0.0419900000 
 N        3.1095830000    -0.4337090000    -1.1318720000 
 C        4.4483770000    -0.3828230000    -1.3144850000 
 O        5.2578570000     0.0053230000    -0.5056870000 
 O        4.7683130000    -0.8483750000    -2.5413240000 
 C        6.1598040000    -0.8649240000    -2.8239170000 
 H        1.5224450000     1.9143170000     0.7691570000 
 H        1.2611850000     1.6156540000    -0.9529640000 
 H        2.8319230000     2.2052560000    -0.3856290000 
 H        1.6457960000    -0.5324770000     0.3243910000 
 H        3.2150220000     0.0730720000     0.8445650000 
 H        2.5502260000    -0.6955720000    -1.9249990000 
 H        6.2508790000    -1.2437010000    -3.8401680000 
 H        6.6900620000    -1.5180290000    -2.1290170000 
 H        6.5830190000     0.1382710000    -2.7546530000 
*
