! RI PBE def2-SVP def2-SVP/J NBO PAL2
% maxcore 2000
% output
    # printlevel mini
    print[ P_Basis ] 0
    print[ P_SCFInfo ] 1
    print[ P_SCFIterInfo ] 1
    print[ P_OrbEn ] 0
    print[ P_Cartesian ] 0
end
*xyz 0 1
 C        1.3170070000     0.9631930000    -0.2345190000 
 C        2.5324610000     0.1942400000     0.1703340000 
 N        2.8072040000    -0.1481900000     1.3691650000 
 N        1.9075640000     0.1286570000     2.3455980000 
 C        3.5120170000    -0.2365570000    -0.8501810000 
 C        3.1238250000    -0.6363370000    -2.2039000000 
 O        3.7162890000     0.6260160000    -1.9666870000 
 H        1.2429200000     1.9042260000     0.3231940000 
 H        0.4044600000     0.3923430000    -0.0329580000 
 H        1.3523090000     1.2228780000    -1.2915360000 
 H        1.3231540000     0.9454300000     2.2007930000 
 H        2.3577280000     0.1338570000     3.2467320000 
 H        4.4168330000    -0.6662650000    -0.4281800000 
 H        2.0752830000    -0.6137870000    -2.4927570000 
 H        3.7414370000    -1.3509950000    -2.7425790000 
*
