! RI PBE def2-SVP def2-SVP/J NBO PAL2
% maxcore 2000
% output
    # printlevel mini
    print[ P_Basis ] 0
    print[ P_SCFInfo ] 1
    print[ P_SCFIterInfo ] 1
    print[ P_OrbEn ] 0
    print[ P_Cartesian ] 0
end
*xyz 0 1
 C        0.9575460000     0.9802780000    -0.3931550000 
 C        2.3982330000     0.6644810000    -0.2180380000 
 N        3.1732140000     1.4276760000     0.4357710000 
 N        4.4987610000     1.1349200000     0.5054860000 
 C        5.1768870000     1.6767980000     1.6702070000 
 C        5.0952380000     3.1904110000     1.7260580000 
 O        3.8155290000     3.6623730000     2.0641760000 
 H        0.7088660000     1.0982690000    -1.4528670000 
 H        0.7035690000     1.9019810000     0.1302180000 
 H        0.3295120000     0.1709110000    -0.0082460000 
 H        2.7871110000    -0.2495570000    -0.6860950000 
 H        4.7087870000     0.1549170000     0.3348870000 
 H        6.2258560000     1.3794570000     1.5835060000 
 H        4.7812590000     1.2643600000     2.6102490000 
 H        5.4327220000     3.5962960000     0.7607840000 
 H        5.7813110000     3.5510610000     2.4977490000 
 H        3.1985900000     3.1692890000     1.5037100000 
*
