! RI PBE def2-SVP def2-SVP/J NBO PAL2
% maxcore 2000
% output
    # printlevel mini
    print[ P_Basis ] 0
    print[ P_SCFInfo ] 1
    print[ P_SCFIterInfo ] 1
    print[ P_OrbEn ] 0
    print[ P_Cartesian ] 0
end
*xyz 0 1
 C        0.3707660000    -0.3050610000     0.0412510000 
 C        1.6846130000     0.3188540000     0.3032580000 
 N        2.7648060000    -0.2113070000    -0.1172140000 
 N        3.8726030000     0.5372310000     0.2390010000 
 C        4.9691500000     0.0356330000    -0.1696500000 
 C        6.2130570000     0.7566260000     0.1571830000 
 O        7.3018650000     0.3706120000    -0.1805120000 
 H       -0.2727020000     0.3900560000    -0.5073590000 
 H       -0.1389370000    -0.5187430000     0.9860960000 
 H        0.4835070000    -1.2257130000    -0.5291720000 
 H        1.7283960000     1.2542040000     0.8691680000 
 H        5.0230350000    -0.8914420000    -0.7426840000 
 H        6.0647220000     1.6858400000     0.7408250000 
*
