! RI PBE def2-SVP def2-SVP/J NBO PAL2
% maxcore 2000
% output
    # printlevel mini
    print[ P_Basis ] 0
    print[ P_SCFInfo ] 1
    print[ P_SCFIterInfo ] 1
    print[ P_OrbEn ] 0
    print[ P_Cartesian ] 0
end
*xyz 0 1
 C        1.3898340000    -0.6994560000    -0.6641890000 
 C        2.8340790000    -0.4222640000    -0.4500410000 
 N        3.4246020000    -0.8842090000     0.5767250000 
 N        4.7396270000    -0.6314130000     0.7704910000 
 C        5.5438560000     0.1479910000    -0.1321710000 
 C        5.2812520000    -1.1736110000     1.9064780000 
 O        6.4340610000    -1.0530190000     2.2393010000 
 H        0.8201710000     0.2333740000    -0.7199720000 
 H        0.9950690000    -1.3085320000     0.1483010000 
 H        1.2320210000    -1.2234900000    -1.6119730000 
 H        3.3501500000     0.1821780000    -1.1986930000 
 H        5.1545560000     1.1666650000    -0.2219790000 
 H        5.5718280000    -0.3101440000    -1.1254730000 
 H        6.5488700000     0.1775310000     0.2836820000 
 H        4.5196150000    -1.7347020000     2.4701060000 
*
