! RI PBE def2-SVP def2-SVP/J NBO PAL2
% maxcore 2000
% output
    # printlevel mini
    print[ P_Basis ] 0
    print[ P_SCFInfo ] 1
    print[ P_SCFIterInfo ] 1
    print[ P_OrbEn ] 0
    print[ P_Cartesian ] 0
end
*xyz 0 1
 C        0.7549110000    -2.0995380000     2.0473010000 
 C        2.0631100000    -1.6035930000     1.5522700000 
 N        3.1289900000    -1.7850490000     2.2178510000 
 N        4.2808700000    -1.3086520000     1.7102380000 
 C        5.4901610000    -1.4475210000     2.3431380000 
 C        5.4761590000    -2.1715480000     3.6568740000 
 O        6.4880630000    -0.9939890000     1.8260250000 
 H        0.3082850000    -2.7980980000     1.3328120000 
 H        0.0464940000    -1.2739930000     2.1680600000 
 H        0.8790400000    -2.6032880000     3.0054200000 
 H        2.0834210000    -1.0734800000     0.5913560000 
 H        4.2971880000    -0.8183740000     0.8207840000 
 H        4.8232920000    -1.6643000000     4.3691400000 
 H        6.4951600000    -2.2037800000     4.0346800000 
 H        5.0846650000    -3.1828880000     3.5350510000 
*
