! RI PBE def2-SVP def2-SVP/J NBO PAL2
% maxcore 2000
% output
    # printlevel mini
    print[ P_Basis ] 0
    print[ P_SCFInfo ] 1
    print[ P_SCFIterInfo ] 1
    print[ P_OrbEn ] 0
    print[ P_Cartesian ] 0
end
*xyz 0 1
 C        5.0874320000    -1.7283490000     3.0424290000 
 C        5.1541650000    -0.7273700000     1.9458110000 
 N        5.3947470000     0.4978040000     2.1906670000 
 N        5.4476750000     1.3700930000     1.1828690000 
 C        5.7155940000     2.7309660000     1.4593030000 
 C        5.7348620000     3.5493990000     0.2089560000 
 O        5.5463870000     3.1057980000    -0.8917600000 
 H        5.8307740000    -2.5203320000     2.9030550000 
 H        4.1077300000    -2.2165180000     3.0755130000 
 H        5.2689860000    -1.2432030000     4.0016720000 
 H        4.9902740000    -1.0727500000     0.9171050000 
 H        5.3027270000     1.0935290000     0.2207320000 
 H        6.6874370000     2.8856520000     1.9579320000 
 H        4.9690110000     3.1889790000     2.1300240000 
 H        5.9410100000     4.6276020000     0.3673910000 
*
