! RI PBE def2-SVP def2-SVP/J NBO PAL2
% maxcore 2000
% output
    # printlevel mini
    print[ P_Basis ] 0
    print[ P_SCFInfo ] 1
    print[ P_SCFIterInfo ] 1
    print[ P_OrbEn ] 0
    print[ P_Cartesian ] 0
end
*xyz 0 1
 C        1.5609690000     0.0575680000    -1.3126360000 
 C        2.9841430000     0.3702240000    -0.9399300000 
 N        3.7563300000     1.1724240000    -1.5488500000 
 N        3.3943280000    -0.3315750000     0.1823040000 
 C        4.5975680000    -0.3656290000     0.8792770000 
 C        5.7332420000     0.4832520000     0.4098610000 
 O        4.6654580000    -1.0899300000     1.8469810000 
 H        1.2643930000     0.6210850000    -2.1956020000 
 H        0.8833750000     0.3108190000    -0.4926490000 
 H        1.4431810000    -1.0089840000    -1.5229980000 
 H        3.2736730000     1.5851090000    -2.3402350000 
 H        2.7155310000    -0.9477630000     0.6036270000 
 H        5.4473610000     1.5356150000     0.3942400000 
 H        5.9992800000     0.2367770000    -0.6186800000 
 H        6.5720780000     0.3156070000     1.0819110000 
*
