! RI PBE def2-SVP def2-SVP/J NBO PAL2
% maxcore 2000
% output
    # printlevel mini
    print[ P_Basis ] 0
    print[ P_SCFInfo ] 1
    print[ P_SCFIterInfo ] 1
    print[ P_OrbEn ] 0
    print[ P_Cartesian ] 0
end
*xyz 0 1
 C        0.9502610000    -0.4790010000    -0.0990380000 
 C        2.3629850000     0.0850370000    -0.0091440000 
 N        2.3778250000     1.4877870000     0.2909670000 
 N        2.0646990000     2.3056740000    -0.7272400000 
 C        2.3923060000     3.5304620000    -0.6579590000 
 C        3.1720500000    -0.6563820000     1.0174310000 
 O        3.8319540000    -0.1310360000     1.8725890000 
 H        0.4002150000     0.0590000000    -0.8710180000 
 H        0.4266500000    -0.3523970000     0.8506570000 
 H        0.9668480000    -1.5398790000    -0.3605560000 
 H        2.8722950000    -0.1231370000    -0.9682670000 
 H        3.1288380000     1.7708140000     0.9149970000 
 H        2.0974600000     4.1790310000    -1.4736230000 
 H        2.9455340000     3.9561310000     0.1845130000 
 H        3.1275900000    -1.7614140000     0.9242910000 
*
