! RI PBE def2-SVP def2-SVP/J NBO PAL2
% maxcore 2000
% output
    # printlevel mini
    print[ P_Basis ] 0
    print[ P_SCFInfo ] 1
    print[ P_SCFIterInfo ] 1
    print[ P_OrbEn ] 0
    print[ P_Cartesian ] 0
end
*xyz 0 1
 C        2.6518520000    -0.8244600000    -1.6291360000 
 C        2.9729680000    -0.0016390000    -0.3943740000 
 N        3.2124980000    -0.8096250000     0.7820870000 
 N        2.0711930000    -1.4298680000     1.3029440000 
 C        4.4261510000    -1.1548800000     1.2947760000 
 C        5.6500700000    -0.5324150000     0.6683380000 
 O        4.5115830000    -1.9363590000     2.2263420000 
 H        2.4194800000    -0.1721730000    -2.4741890000 
 H        1.7861900000    -1.4615630000    -1.4408360000 
 H        3.4947870000    -1.4607220000    -1.9103410000 
 H        2.1386590000     0.6680060000    -0.1673560000 
 H        3.8468140000     0.6272120000    -0.5649280000 
 H        1.9188490000    -1.0678650000     2.2406120000 
 H        2.2945820000    -2.4124900000     1.4361920000 
 H        5.6545670000     0.5526770000     0.7956430000 
 H        5.7143170000    -0.7448120000    -0.4009760000 
 H        6.5200500000    -0.9510140000     1.1687130000 
*
