! RI PBE def2-SVP def2-SVP/J NBO PAL2
% maxcore 2000
% output
    # printlevel mini
    print[ P_Basis ] 0
    print[ P_SCFInfo ] 1
    print[ P_SCFIterInfo ] 1
    print[ P_OrbEn ] 0
    print[ P_Cartesian ] 0
end
*xyz 0 1
 C        1.3232740000    -1.3578130000     1.4115290000 
 C        1.4808150000    -0.2021280000     0.4476010000 
 N        2.6111100000    -0.4323630000    -0.4294860000 
 N        2.7553080000     0.4874110000    -1.4112340000 
 C        3.8908180000     0.7120950000    -1.9254080000 
 C        3.9870010000     1.6725190000    -3.0661070000 
 O        2.7537840000     2.2375600000    -3.3948980000 
 H        0.4628870000    -1.1949420000     2.0628160000 
 H        2.2031960000    -1.4655960000     2.0529460000 
 H        1.1791350000    -2.2967550000     0.8734690000 
 H        1.5808980000     0.7432870000     1.0013890000 
 H        0.5968620000    -0.1081420000    -0.1870830000 
 H        3.4713170000    -0.6336420000     0.0749610000 
 H        4.8062080000     0.2182530000    -1.5805990000 
 H        4.4103990000     1.1465850000    -3.9365060000 
 H        4.7057020000     2.4644140000    -2.8065800000 
 H        2.1078770000     1.8162570000    -2.8095090000 
*
