! RI PBE def2-SVP def2-SVP/J NBO PAL2
% maxcore 2000
% output
    # printlevel mini
    print[ P_Basis ] 0
    print[ P_SCFInfo ] 1
    print[ P_SCFIterInfo ] 1
    print[ P_OrbEn ] 0
    print[ P_Cartesian ] 0
end
*xyz 0 1
 C        0.7828260000     0.0618560000    -0.0661230000 
 C        2.2700020000     0.0887990000    -0.3406640000 
 N        2.9483120000    -0.8554210000     0.5470700000 
 N        4.3012460000    -0.9741930000     0.2455210000 
 C        4.7429520000    -1.9167140000    -0.6292250000 
 C        6.2390260000    -2.0481360000    -0.7333790000 
 O        3.9745130000    -2.6034500000    -1.2744250000 
 H        0.2644320000     0.7865140000    -0.6964330000 
 H        0.5744570000     0.2998090000     0.9791100000 
 H        0.3614330000    -0.9241450000    -0.2817900000 
 H        2.6748790000     1.0843130000    -0.1368370000 
 H        2.4692920000    -0.1413080000    -1.3954270000 
 H        2.5467500000    -1.7781480000     0.3972050000 
 H        4.9333530000    -0.5880880000     0.9263650000 
 H        6.7828410000    -1.3261160000    -0.1222760000 
 H        6.5249960000    -1.9193470000    -1.7779190000 
 H        6.5246920000    -3.0586550000    -0.4364630000 
*
