! RI PBE def2-SVP def2-SVP/J NBO PAL2
% maxcore 2000
% output
    # printlevel mini
    print[ P_Basis ] 0
    print[ P_SCFInfo ] 1
    print[ P_SCFIterInfo ] 1
    print[ P_OrbEn ] 0
    print[ P_Cartesian ] 0
end
*xyz 0 1
 C        3.0265080000    -1.5790770000    -0.2534090000 
 C        2.5891480000    -0.1842380000     0.0689510000 
 N        1.3979710000     0.2870800000    -0.0078980000 
 N        3.5362680000     0.6990930000     0.4908470000 
 O        3.0686390000     1.9577120000     0.7687020000 
 C        4.8811310000     0.4966570000     0.6722860000 
 C        5.7449900000     1.4194440000     1.0909650000 
 H        2.1626530000    -2.1593590000    -0.5731970000 
 H        3.4672600000    -2.0700060000     0.6169330000 
 H        3.7647110000    -1.5895130000    -1.0582190000 
 H        0.7265260000    -0.3986660000    -0.3241470000 
 H        2.1088740000     1.8319250000     0.5616340000 
 H        5.1943940000    -0.5118360000     0.4386730000 
 H        5.4323790000     2.4269370000     1.3244110000 
 H        6.7868660000     1.1556570000     1.2008580000 
*
