! RI PBE def2-SVP def2-SVP/J NBO PAL2
% maxcore 2000
% output
    # printlevel mini
    print[ P_Basis ] 0
    print[ P_SCFInfo ] 1
    print[ P_SCFIterInfo ] 1
    print[ P_OrbEn ] 0
    print[ P_Cartesian ] 0
end
*xyz 0 1
 C        0.6606600000     0.4160140000     1.3964390000 
 C        2.1079660000     0.4415440000     1.0682410000 
 N        2.9156600000     1.0776220000     1.8074380000 
 O        4.2156230000     0.9872630000     1.3340440000 
 C        5.0721520000     1.7083230000     2.1660920000 
 C        5.6039710000     1.0486130000     3.3917240000 
 C        6.4772300000     1.2302940000     2.1787430000 
 H        0.3164140000    -0.6118030000     1.5454650000 
 H        0.0713100000     0.8336300000     0.5745610000 
 H        0.4657680000     0.9909110000     2.3013960000 
 H        2.4735940000    -0.0900960000     0.1866820000 
 H        4.8707400000     2.7748420000     2.1886580000 
 H        5.2446390000     0.0484210000     3.5970530000 
 H        5.7856240000     1.6614840000     4.2656330000 
 H        6.6913660000     0.3481190000     1.5888170000 
 H        7.2689740000     1.9679270000     2.2036930000 
*
