! RI PBE def2-SVP def2-SVP/J NBO PAL2
% maxcore 2000
% output
    # printlevel mini
    print[ P_Basis ] 0
    print[ P_SCFInfo ] 1
    print[ P_SCFIterInfo ] 1
    print[ P_OrbEn ] 0
    print[ P_Cartesian ] 0
end
*xyz 0 1
 C        0.9212400000     0.1099290000    -0.2517920000 
 C        2.3989550000    -0.0176670000    -0.0887560000 
 N        3.1076950000    -0.8973840000    -0.6740470000 
 O        2.3437530000    -1.7494430000    -1.4567430000 
 C        3.1130220000     0.9121900000     0.8169760000 
 C        3.6853700000     0.3861900000     2.0839110000 
 N        4.5467370000     0.8051170000     0.9918520000 
 H        0.4248630000    -0.8093860000     0.0684940000 
 H        0.6641340000     0.2531220000    -1.3040850000 
 H        0.5326840000     0.9449630000     0.3304490000 
 H        3.0033510000    -2.3269290000    -1.8498770000 
 H        2.7258270000     1.9280170000     0.8133070000 
 H        3.5609570000    -0.6760750000     2.2701500000 
 H        3.7075840000     1.0184440000     2.9653670000 
 H        4.8646180000    -0.0074680000     0.4696910000 
*
