! RI PBE def2-SVP def2-SVP/J NBO PAL2
% maxcore 2000
% output
    # printlevel mini
    print[ P_Basis ] 0
    print[ P_SCFInfo ] 1
    print[ P_SCFIterInfo ] 1
    print[ P_OrbEn ] 0
    print[ P_Cartesian ] 0
end
*xyz 0 1
 C        0.9690840000    -0.0883600000    -0.0299810000 
 C        2.4582570000    -0.0107070000     0.0510320000 
 N        3.1710490000    -0.6919150000     0.8523650000 
 O        2.3919810000    -1.5089810000     1.6561560000 
 C        3.1538240000     0.9337870000    -0.8593130000 
 C        3.8164850000     2.1437700000    -0.3579890000 
 O        4.5550860000     1.0285960000    -0.8130460000 
 H        0.5231780000     0.1639150000     0.9348950000 
 H        0.6528270000    -1.1077290000    -0.2644650000 
 H        0.5784080000     0.5897260000    -0.7891220000 
 H        3.0492570000    -1.9711620000     2.1832920000 
 H        2.7278580000     0.9759740000    -1.8624710000 
 H        3.8457360000     2.3084470000     0.7161270000 
 H        3.8654700000     3.0303290000    -0.9860600000 
*
