! RI PBE def2-SVP def2-SVP/J NBO PAL2
% maxcore 2000
% output
    # printlevel mini
    print[ P_Basis ] 0
    print[ P_SCFInfo ] 1
    print[ P_SCFIterInfo ] 1
    print[ P_OrbEn ] 0
    print[ P_Cartesian ] 0
end
*xyz 0 1
 C        3.2375750000     2.6596040000    -0.0807230000 
 C        3.5861260000     1.2519960000     0.2373940000 
 N        4.3966220000     0.9928710000     1.1759660000 
 O        4.5849820000    -0.3605950000     1.3388490000 
 C        5.5460660000    -0.6045940000     2.3683350000 
 C        5.4077570000    -2.0685190000     2.7168650000 
 C        6.9403560000    -0.2361950000     1.9064620000 
 H        3.4963920000     2.8978830000    -1.1168650000 
 H        3.7674770000     3.3422240000     0.5833300000 
 H        2.1610590000     2.8250870000     0.0248950000 
 H        3.1388280000     0.4397760000    -0.3401020000 
 H        5.2699600000     0.0133120000     3.2309310000 
 H        5.6389670000    -2.6920550000     1.8496870000 
 H        4.3919910000    -2.2960950000     3.0444850000 
 H        6.0993650000    -2.3298960000     3.5200890000 
 H        7.2301780000    -0.8455670000     1.0462530000 
 H        7.6644850000    -0.4028320000     2.7077440000 
 H        6.9805130000     0.8155060000     1.6195940000 
*
