! RI PBE def2-SVP def2-SVP/J NBO PAL2
% maxcore 2000
% output
    # printlevel mini
    print[ P_Basis ] 0
    print[ P_SCFInfo ] 1
    print[ P_SCFIterInfo ] 1
    print[ P_OrbEn ] 0
    print[ P_Cartesian ] 0
end
*xyz 0 1
 C       -0.4189600000    -0.4411220000     0.9778860000 
 C        0.5217780000     0.2195500000     0.0397130000 
 N        1.7706600000     0.1488940000     0.2370110000 
 O        2.4798200000     0.8237300000    -0.7399980000 
 C        3.8620190000     0.6990990000    -0.4493460000 
 C        4.6212550000     1.4003170000    -1.4679700000 
 C        5.2749930000     1.9715210000    -2.2949890000 
 H       -1.0329890000    -1.1778760000     0.4514420000 
 H       -1.1042810000     0.2913080000     1.4147060000 
 H        0.1268980000    -0.9396040000     1.7784370000 
 H        0.1340850000     0.7670620000    -0.8220410000 
 H        4.1456410000    -0.3595110000    -0.4290160000 
 H        4.0758520000     1.1223990000     0.5389180000 
 H        5.8508380000     2.4800330000    -3.0316730000 
*
