! RI PBE def2-SVP def2-SVP/J NBO PAL2
% maxcore 2000
% output
    # printlevel mini
    print[ P_Basis ] 0
    print[ P_SCFInfo ] 1
    print[ P_SCFIterInfo ] 1
    print[ P_OrbEn ] 0
    print[ P_Cartesian ] 0
end
*xyz 0 1
 C        1.4613580000    -0.7193520000     0.2620410000 
 C        2.9226010000    -0.5518320000     0.0628280000 
 N        3.5322920000    -1.2569780000    -0.7949490000 
 O        4.8783460000    -0.9657110000    -0.8385440000 
 C        5.5060130000    -1.7589460000    -1.8282340000 
 C        6.9795490000    -1.4204240000    -1.8124370000 
 N        7.6674310000    -2.2323770000    -2.8027330000 
 H        1.2418110000    -1.0066410000     1.2948030000 
 H        1.0715800000    -1.4839480000    -0.4094930000 
 H        0.9352900000     0.2215110000     0.0743140000 
 H        3.4707790000     0.1818910000     0.6582490000 
 H        5.0785130000    -1.5526000000    -2.8141320000 
 H        5.3495390000    -2.8216630000    -1.6041540000 
 H        7.3586480000    -1.5341850000    -0.7859090000 
 H        7.1010300000    -0.3677950000    -2.0823140000 
 H        7.7013130000    -3.2009980000    -2.5091510000 
 H        8.6241070000    -1.9247500000    -2.9141850000 
*
