! RI PBE def2-SVP def2-SVP/J NBO PAL2
% maxcore 2000
% output
    # printlevel mini
    print[ P_Basis ] 0
    print[ P_SCFInfo ] 1
    print[ P_SCFIterInfo ] 1
    print[ P_OrbEn ] 0
    print[ P_Cartesian ] 0
end
*xyz 0 1
 C        2.3263140000     0.7258390000     1.4976440000 
 C        2.7503020000     0.0258810000     0.2182030000 
 N        3.2882700000     0.9100350000    -0.8044700000 
 O        2.2980720000     1.8165570000    -1.2095170000 
 C        4.5311380000     1.5307330000    -0.6157280000 
 C        5.5917820000     0.6423720000    -0.0371910000 
 N        4.8187940000     2.7153450000    -0.9640800000 
 H        1.8983610000     0.0056720000     2.1987560000 
 H        1.5737950000     1.4871520000     1.2881750000 
 H        3.1750360000     1.2113680000     1.9854290000 
 H        1.9005240000    -0.4939880000    -0.2308670000 
 H        3.5096380000    -0.7313910000     0.4191360000 
 H        2.1230660000     1.5769730000    -2.1255590000 
 H        5.6343260000    -0.3206240000    -0.5509810000 
 H        5.4176380000     0.4504360000     1.0247580000 
 H        6.5453730000     1.1540570000    -0.1435900000 
 H        3.9834600000     3.1871750000    -1.3073200000 
*
