! RI PBE def2-SVP def2-SVP/J NBO PAL2
% maxcore 2000
% output
    # printlevel mini
    print[ P_Basis ] 0
    print[ P_SCFInfo ] 1
    print[ P_SCFIterInfo ] 1
    print[ P_OrbEn ] 0
    print[ P_Cartesian ] 0
end
*xyz 0 1
 C        2.2431410000     1.0887830000    -4.1478650000 
 C        3.1682240000     1.5288550000    -3.0753180000 
 N        4.3252970000     1.0229870000    -2.9754790000 
 O        5.0360660000     1.5456050000    -1.9148880000 
 C        6.3538380000     1.0099130000    -1.8900000000 
 C        6.3989700000    -0.4867380000    -1.6807310000 
 O        6.0678370000    -1.2215470000    -2.8322370000 
 H        1.3242140000     0.6788710000    -3.7183410000 
 H        2.7106940000     0.3300850000    -4.7749920000 
 H        1.9513130000     1.9369910000    -4.7740790000 
 H        2.8515690000     2.2951480000    -2.3648580000 
 H        6.8273000000     1.5227900000    -1.0498260000 
 H        6.8797360000     1.2775080000    -2.8136050000 
 H        5.7447700000    -0.7444300000    -0.8339600000 
 H        7.4204980000    -0.7657750000    -1.4033430000 
 H        5.3079330000    -0.7724250000    -3.2268680000 
*
