! RI PBE def2-SVP def2-SVP/J NBO PAL2
% maxcore 2000
% output
    # printlevel mini
    print[ P_Basis ] 0
    print[ P_SCFInfo ] 1
    print[ P_SCFIterInfo ] 1
    print[ P_OrbEn ] 0
    print[ P_Cartesian ] 0
end
*xyz 0 1
 C        0.5859400000     0.1186040000    -0.0833960000 
 C        2.0102690000    -0.1022380000     0.2671670000 
 N        2.9058150000     0.6610260000    -0.2004060000 
 O        4.1721870000     0.2962930000     0.2351180000 
 C        5.1056640000     1.2133780000    -0.2777960000 
 C        5.2493050000     1.1291930000    -1.7791920000 
 O        5.9017930000     1.9047030000    -2.4181680000 
 H        0.1701890000    -0.7658730000    -0.5749770000 
 H        0.4836060000     0.9764980000    -0.7471780000 
 H       -0.0084990000     0.2911690000     0.8185940000 
 H        2.2857320000    -0.9253200000     0.9300060000 
 H        6.0658620000     0.9487610000     0.1748070000 
 H        4.8630860000     2.2426720000     0.0052300000 
 H        4.7193500000     0.2745240000    -2.2505900000 
*
