! RI PBE def2-SVP def2-SVP/J NBO PAL2
% maxcore 2000
% output
    # printlevel mini
    print[ P_Basis ] 0
    print[ P_SCFInfo ] 1
    print[ P_SCFIterInfo ] 1
    print[ P_OrbEn ] 0
    print[ P_Cartesian ] 0
end
*xyz 0 1
 C        2.5447480000    -1.4148290000     0.2490840000 
 C        2.9599640000     0.0297930000     0.4695970000 
 N        3.3271770000     0.7030530000    -0.7416570000 
 O        2.2680100000     0.9027140000    -1.6041370000 
 C        4.5166050000     1.1179540000    -1.2039390000 
 C        5.7245360000     0.9294930000    -0.3297540000 
 O        4.5681050000     1.6418700000    -2.3165020000 
 H        2.2359000000    -1.8639870000     1.1953980000 
 H        3.3701730000    -2.0021640000    -0.1587740000 
 H        1.7074310000    -1.4697990000    -0.4470670000 
 H        3.8148540000     0.0923080000     1.1431810000 
 H        2.1421130000     0.5941040000     0.9303680000 
 H        2.7414090000     1.3268220000    -2.3548380000 
 H        5.6495850000     1.5229950000     0.5842240000 
 H        6.5910760000     1.2639560000    -0.8954940000 
 H        5.8650140000    -0.1155840000    -0.0469700000 
*
