! RI PBE def2-SVP def2-SVP/J NBO PAL2
% maxcore 2000
% output
    # printlevel mini
    print[ P_Basis ] 0
    print[ P_SCFInfo ] 1
    print[ P_SCFIterInfo ] 1
    print[ P_OrbEn ] 0
    print[ P_Cartesian ] 0
end
*xyz 0 1
 C        2.5791630000     1.2035480000    -0.2963490000 
 C        4.0270720000     0.9451470000    -0.6594680000 
 N        4.8391390000     0.5109990000     0.4547930000 
 O        4.5956400000    -0.7845250000     0.8861370000 
 C        3.9867260000    -0.7918950000     2.1670670000 
 C        6.1181620000     0.9445320000     0.6346590000 
 O        6.5839440000     1.9429120000     0.1403360000 
 H        2.0394690000     1.5656160000    -1.1740260000 
 H        2.4991680000     1.9585860000     0.4883740000 
 H        2.0820190000     0.2921510000     0.0414560000 
 H        4.5117370000     1.8541160000    -1.0195170000 
 H        4.0941150000     0.1922490000    -1.4536290000 
 H        3.8086050000    -1.8424170000     2.3983850000 
 H        3.0389130000    -0.2479860000     2.1627130000 
 H        4.6496100000    -0.3596280000     2.9224310000 
 H        6.6707290000     0.2801850000     1.3225380000 
*
