! RI PBE def2-SVP def2-SVP/J NBO PAL2
% maxcore 2000
% output
    # printlevel mini
    print[ P_Basis ] 0
    print[ P_SCFInfo ] 1
    print[ P_SCFIterInfo ] 1
    print[ P_OrbEn ] 0
    print[ P_Cartesian ] 0
end
*xyz 0 1
 C        2.1923430000     0.7542630000     2.2400190000 
 C        3.0317100000     0.6790320000     0.9759640000 
 N        3.7344110000    -0.5683380000     0.7962710000 
 O        2.8693150000    -1.6474200000     0.6599020000 
 C        4.8585550000    -0.8697310000     1.4937680000 
 N        5.1098260000    -2.0762320000     1.8048490000 
 C        6.3555260000    -2.3863560000     2.4485310000 
 H        1.6557270000     1.7048710000     2.2798080000 
 H        2.8161830000     0.6766330000     3.1337220000 
 H        1.4607850000    -0.0539610000     2.2600580000 
 H        3.7953700000     1.4617610000     0.9617500000 
 H        2.4065420000     0.8262730000     0.0916120000 
 H        3.3952470000    -2.3645180000     1.0817710000 
 H        5.5033250000    -0.0104970000     1.7048060000 
 H        6.9656050000    -1.4981640000     2.6671320000 
 H        6.9492400000    -3.0587520000     1.8211780000 
 H        6.1696000000    -2.9118640000     3.3896600000 
*
