! RI PBE def2-SVP def2-SVP/J NBO PAL2
% maxcore 2000
% output
    # printlevel mini
    print[ P_Basis ] 0
    print[ P_SCFInfo ] 1
    print[ P_SCFIterInfo ] 1
    print[ P_OrbEn ] 0
    print[ P_Cartesian ] 0
end
*xyz 0 1
 C        1.0474320000     0.0442030000     0.7381690000 
 C        2.4592310000     0.0879590000     0.2661300000 
 N        2.7182560000     0.7945870000    -0.8986690000 
 O        1.6230140000     1.0237130000    -1.7328320000 
 N        3.3934990000    -0.4676170000     0.9334960000 
 C        4.7145060000    -0.3079230000     0.5357150000 
 C        5.5962070000    -1.3024290000     0.4477220000 
 H        0.6521260000     1.0536930000     0.8767040000 
 H        1.0211170000    -0.4907580000     1.6842040000 
 H        0.4066260000    -0.4515510000     0.0064380000 
 H        3.4812250000     0.4142930000    -1.4454080000 
 H        1.5445500000     1.9824640000    -1.7670090000 
 H        5.0413290000     0.7168410000     0.3372620000 
 H        5.3066200000    -2.3267130000     0.6511170000 
 H        6.6242600000    -1.1036730000     0.1747600000 
*
