! RI PBE def2-SVP def2-SVP/J NBO PAL2
% maxcore 2000
% output
    # printlevel mini
    print[ P_Basis ] 0
    print[ P_SCFInfo ] 1
    print[ P_SCFIterInfo ] 1
    print[ P_OrbEn ] 0
    print[ P_Cartesian ] 0
end
*xyz 0 1
 C        1.0473870000    -0.1519790000    -0.2026400000 
 C        2.5477140000    -0.1146930000    -0.0626400000 
 O        3.1198590000    -0.0077870000    -1.3490350000 
 C        4.5037960000     0.0203300000    -1.3196500000 
 C        5.1784120000     0.7159710000    -2.4513110000 
 C        5.2268140000     1.3197500000    -1.0808830000 
 N        6.4802770000     1.4204510000    -0.3952740000 
 H        0.5763190000    -0.2374700000     0.7790260000 
 H        0.7387810000    -1.0051090000    -0.8098100000 
 H        0.6833400000     0.7587270000    -0.6822240000 
 H        2.9125360000    -1.0280860000     0.4311190000 
 H        2.8610160000     0.7377920000     0.5568000000 
 H        4.9749570000    -0.8824800000    -0.9262090000 
 H        4.5394260000     1.1872360000    -3.1871110000 
 H        6.0857590000     0.2765150000    -2.8507270000 
 H        4.5768340000     2.1790640000    -0.9396010000 
 H        7.1727680000     0.8050080000    -0.7994240000 
 H        6.3891140000     1.1848610000     0.5851940000 
*
