! RI PBE def2-SVP def2-SVP/J NBO PAL2
% maxcore 2000
% output
    # printlevel mini
    print[ P_Basis ] 0
    print[ P_SCFInfo ] 1
    print[ P_SCFIterInfo ] 1
    print[ P_OrbEn ] 0
    print[ P_Cartesian ] 0
end
*xyz 0 1
 C        3.6016790000    -0.6521750000     0.8110510000 
 C        2.5029460000     0.0319870000     0.0184700000 
 O        1.5540110000     0.6376710000     0.8792420000 
 C        3.0664040000     1.0078560000    -0.9922260000 
 C        2.2106640000     2.0914420000    -1.5802450000 
 C        3.3301380000     2.4531510000    -0.6635410000 
 N        4.4565610000     3.1857230000    -1.1673070000 
 H        3.1760340000    -1.3682420000     1.5167170000 
 H        4.1853650000     0.0854220000     1.3725210000 
 H        4.2899790000    -1.1847770000     0.1503740000 
 H        1.9295500000    -0.7294020000    -0.5229170000 
 H        2.0321400000     1.1499520000     1.5373120000 
 H        3.7873600000     0.5606770000    -1.6719270000 
 H        1.2013550000     2.1887440000    -1.2001720000 
 H        2.3285980000     2.3192940000    -2.6340310000 
 H        3.0226020000     2.7892130000     0.3229540000 
 H        4.5253860000     3.0954260000    -2.1725330000 
 H        5.3240190000     2.8442370000    -0.7715420000 
*
