! RI PBE def2-SVP def2-SVP/J NBO PAL2
% maxcore 2000
% output
    # printlevel mini
    print[ P_Basis ] 0
    print[ P_SCFInfo ] 1
    print[ P_SCFIterInfo ] 1
    print[ P_OrbEn ] 0
    print[ P_Cartesian ] 0
end
*xyz 0 1
 C        1.4567170000    -0.9407360000     0.2175510000 
 C        2.7639040000    -0.2124520000    -0.0363600000 
 O        3.8576150000    -0.9047700000     0.5452740000 
 C        3.0489430000    -0.0461060000    -1.5183450000 
 C        4.4260860000     0.5505420000    -1.8656140000 
 C        4.8127720000    -0.8556830000    -2.3489830000 
 N        3.3996320000    -1.2716220000    -2.2609950000 
 H        1.2686640000    -1.0445060000     1.2904130000 
 H        1.4772580000    -1.9429210000    -0.2183030000 
 H        0.6160660000    -0.3938640000    -0.2155770000 
 H        2.6971530000     0.8022380000     0.3888500000 
 H        3.6611380000    -1.0574440000     1.4723150000 
 H        2.1916560000     0.4820070000    -1.9538740000 
 H        4.9958610000     0.9412320000    -1.0233790000 
 H        4.3866380000     1.2962790000    -2.6593950000 
 H        5.4753870000    -1.3743070000    -1.6502800000 
 H        5.2272070000    -0.9281420000    -3.3583630000 
 H        3.2550950000    -2.1255550000    -1.7367160000 
*
