! RI PBE def2-SVP def2-SVP/J NBO PAL2
% maxcore 2000
% output
    # printlevel mini
    print[ P_Basis ] 0
    print[ P_SCFInfo ] 1
    print[ P_SCFIterInfo ] 1
    print[ P_OrbEn ] 0
    print[ P_Cartesian ] 0
end
*xyz 0 1
 C        2.7945460000     1.4478740000     0.4757930000 
 C        2.4011010000     0.0739360000    -0.0420820000 
 O        2.8851340000    -0.1391350000    -1.3467990000 
 C        2.9013910000    -1.0186850000     0.8803130000 
 C        3.0522560000    -2.4176580000     0.4280650000 
 N        4.2082240000    -1.5463890000     0.5479520000 
 C        5.1180020000    -1.8151530000     1.6377850000 
 H        2.4558480000     2.2188780000    -0.2179540000 
 H        3.8819130000     1.5233150000     0.5665170000 
 H        2.3517260000     1.6445860000     1.4564510000 
 H        1.3081470000     0.0098510000    -0.1001790000 
 H        3.7850780000    -0.4801840000    -1.2295010000 
 H        2.6866280000    -0.8734230000     1.9381140000 
 H        2.7719390000    -2.6899900000    -0.5834910000 
 H        2.9372350000    -3.1982070000     1.1761880000 
 H        5.8434800000    -2.5709970000     1.3284660000 
 H        4.6053490000    -2.1774620000     2.5418070000 
 H        5.6627110000    -0.9034250000     1.8928450000 
*
