! RI PBE def2-SVP def2-SVP/J NBO PAL2
% maxcore 2000
% output
    # printlevel mini
    print[ P_Basis ] 0
    print[ P_SCFInfo ] 1
    print[ P_SCFIterInfo ] 1
    print[ P_OrbEn ] 0
    print[ P_Cartesian ] 0
end
*xyz 0 1
 C        1.0125130000    -1.9518690000    -0.5012590000 
 C        2.3917180000    -1.7974050000    -1.0895030000 
 O        3.2285140000    -1.1872040000    -0.1331780000 
 C        4.5214750000    -0.9726950000    -0.5967480000 
 C        5.4704430000    -0.3407760000     0.4207170000 
 N        6.5266430000    -1.2464970000    -0.0638750000 
 C        5.5152740000    -2.1533120000    -0.6316500000 
 H        0.3412040000    -2.4187270000    -1.2252490000 
 H        0.6018030000    -0.9787040000    -0.2255340000 
 H        1.0435530000    -2.5764540000     0.3935500000 
 H        2.3587450000    -1.1801520000    -2.0003840000 
 H        2.7991040000    -2.7781550000    -1.3768630000 
 H        4.5098460000    -0.4278540000    -1.5501540000 
 H        5.1162050000    -0.5548830000     1.4370210000 
 H        5.6936540000     0.7246790000     0.3277910000 
 H        7.1192580000    -1.6467360000     0.6510620000 
 H        5.1781880000    -2.9447120000     0.0515050000 
 H        5.7817610000    -2.5906630000    -1.5973590000 
*
