! RI PBE def2-SVP def2-SVP/J NBO PAL2
% maxcore 2000
% output
    # printlevel mini
    print[ P_Basis ] 0
    print[ P_SCFInfo ] 1
    print[ P_SCFIterInfo ] 1
    print[ P_OrbEn ] 0
    print[ P_Cartesian ] 0
end
*xyz 0 1
 C        1.1000910000    -0.0895430000     1.6660630000 
 C        2.3721310000    -0.4601840000     1.6883220000 
 O        3.1990830000    -0.3020110000     0.6304830000 
 C        4.5651530000    -0.4815380000     0.8843330000 
 C        5.4453960000    -0.5346950000    -0.3622340000 
 N        6.4424160000     0.2690650000     0.3669110000 
 C        5.4039320000     0.7392650000     1.2994760000 
 H        0.4757690000    -0.2759130000     2.5280560000 
 H        0.6639660000     0.3869900000     0.7973280000 
 H        2.8201130000    -0.9355140000     2.5598420000 
 H        4.7227770000    -1.3383810000     1.5473790000 
 H        4.9502240000    -0.0073990000    -1.1873370000 
 H        5.7944210000    -1.5103000000    -0.7078020000 
 H        6.9013260000     0.9893040000    -0.1745530000 
 H        4.8963110000     1.6622080000     0.9911680000 
 H        5.7211800000     0.8247760000     2.3417650000 
*
