! RI PBE def2-SVP def2-SVP/J NBO PAL2
% maxcore 2000
% output
    # printlevel mini
    print[ P_Basis ] 0
    print[ P_SCFInfo ] 1
    print[ P_SCFIterInfo ] 1
    print[ P_OrbEn ] 0
    print[ P_Cartesian ] 0
end
*xyz 0 1
 C        2.6854160000     1.3558450000     0.3549740000 
 C        2.4010430000    -0.1031920000     0.0588300000 
 O        2.8257250000    -0.4669830000    -1.2429630000 
 C        2.9811120000    -1.0145460000     1.1193610000 
 N        3.1545100000    -2.4323340000     0.8398540000 
 C        4.3361270000    -1.5858860000     1.0113810000 
 C        5.1929370000    -1.8510620000     2.2121600000 
 H        2.2125500000     1.9983900000    -0.3901530000 
 H        3.7639460000     1.5463560000     0.3482830000 
 H        2.3076740000     1.6361100000     1.3409100000 
 H        1.3161200000    -0.2605470000     0.0454890000 
 H        3.6949650000    -0.0851020000    -1.3936950000 
 H        2.6012820000    -0.8077750000     2.1187090000 
 H        2.9952610000    -2.5762350000    -0.1543940000 
 H        4.8831210000    -1.3492150000     0.1002600000 
 H        4.5703150000    -2.0961810000     3.0745340000 
 H        5.8040220000    -0.9791960000     2.4616070000 
 H        5.8638820000    -2.6953280000     2.0328430000 
*
