! RI PBE def2-SVP def2-SVP/J NBO PAL2
% maxcore 2000
% output
    # printlevel mini
    print[ P_Basis ] 0
    print[ P_SCFInfo ] 1
    print[ P_SCFIterInfo ] 1
    print[ P_OrbEn ] 0
    print[ P_Cartesian ] 0
end
*xyz 0 1
 C        1.4419710000     0.5519630000    -0.7129000000 
 C        2.7508790000     0.3149450000    -0.0039890000 
 O        3.3367160000     1.5573960000     0.3026860000 
 C        4.5599460000     1.4373130000     0.9769360000 
 C        5.0948400000     2.8004360000     1.3133320000 
 C        4.8595610000     3.9525880000     0.4278500000 
 N        4.1881880000     3.8598280000     1.7269000000 
 H        0.9693820000    -0.4005830000    -0.9616640000 
 H        1.5999300000     1.1101330000    -1.6376360000 
 H        0.7578670000     1.1206760000    -0.0801520000 
 H        3.4334760000    -0.2717490000    -0.6372890000 
 H        2.5925110000    -0.2600090000     0.9210970000 
 H        5.2919660000     0.8946220000     0.3580070000 
 H        4.4228970000     0.8571820000     1.9040510000 
 H        6.0221040000     2.7639480000     1.8800470000 
 H        4.2655550000     3.7818110000    -0.4630690000 
 H        5.6057000000     4.7359840000     0.3507900000 
 H        3.2354450000     3.5426970000     1.5721960000 
*
