! RI PBE def2-SVP def2-SVP/J NBO PAL2
% maxcore 2000
% output
    # printlevel mini
    print[ P_Basis ] 0
    print[ P_SCFInfo ] 1
    print[ P_SCFIterInfo ] 1
    print[ P_OrbEn ] 0
    print[ P_Cartesian ] 0
end
*xyz 0 1
 C        2.8998360000     0.1054070000    -0.7473140000 
 C        2.5579300000     0.6360690000     0.4220820000 
 O        3.2402550000     0.5961880000     1.5822730000 
 C        4.4684160000    -0.0986630000     1.5798190000 
 C        5.0682730000    -0.0539060000     2.9550570000 
 C        4.8680090000     1.0984960000     3.8484350000 
 N        4.2317110000    -0.1892620000     4.1359370000 
 H        2.2312330000     0.2315630000    -1.5872690000 
 H        3.8136780000    -0.4487960000    -0.9103760000 
 H        1.6330590000     1.1878230000     0.5518540000 
 H        5.1544800000     0.3553820000     0.8527670000 
 H        4.2965470000    -1.1401420000     1.2759020000 
 H        6.0081040000    -0.5975750000     3.0150210000 
 H        4.2411510000     1.9069550000     3.4886870000 
 H        5.6522480000     1.3880920000     4.5392520000 
 H        3.2562620000    -0.1411190000     3.8566840000 
*
