! RI PBE def2-SVP def2-SVP/J NBO PAL2
% maxcore 2000
% output
    # printlevel mini
    print[ P_Basis ] 0
    print[ P_SCFInfo ] 1
    print[ P_SCFIterInfo ] 1
    print[ P_OrbEn ] 0
    print[ P_Cartesian ] 0
end
*xyz 0 1
 C        2.9496250000     1.5619130000     0.1272310000 
 C        2.5527820000     0.0987650000     0.0486180000 
 O        2.9577060000    -0.4773210000    -1.1820470000 
 C        3.0465640000    -0.7308690000     1.2358670000 
 C        4.5416270000    -0.8590270000     1.3033710000 
 C        5.1766370000    -2.0847810000     1.8179130000 
 N        5.2320710000    -1.7762080000     0.3911690000 
 H        2.5388370000     2.1047240000    -0.7256320000 
 H        4.0370520000     1.6806050000     0.1097590000 
 H        2.5757050000     2.0240570000     1.0443890000 
 H        1.4599470000     0.0368610000     0.0329220000 
 H        3.9138900000    -0.3874560000    -1.2526230000 
 H        2.6086850000    -1.7326430000     1.1602440000 
 H        2.6704480000    -0.2863160000     2.1644840000 
 H        5.0862460000     0.0701400000     1.4517020000 
 H        4.5232140000    -2.8872440000     2.1471280000 
 H        6.1262800000    -2.0281450000     2.3384810000 
 H        4.5415020000    -2.3341640000    -0.1022850000 
*
