! RI PBE def2-SVP def2-SVP/J NBO PAL2
% maxcore 2000
% output
    # printlevel mini
    print[ P_Basis ] 0
    print[ P_SCFInfo ] 1
    print[ P_SCFIterInfo ] 1
    print[ P_OrbEn ] 0
    print[ P_Cartesian ] 0
end
*xyz 0 1
 C        1.0967740000     0.1083540000    -0.0711580000 
 C        2.6035990000     0.0536540000    -0.0756220000 
 O        3.1075960000     1.2964550000     0.3422360000 
 C        4.5127530000     1.3351020000     0.3737340000 
 C        4.9725100000     2.7021480000     0.8235000000 
 C        4.6174250000     3.8122540000    -0.1478890000 
 N        5.1325130000     5.0875540000     0.3342050000 
 H        0.6805980000    -0.8487190000    -0.3932020000 
 H        0.7381730000     0.8860630000    -0.7483320000 
 H        0.7231510000     0.3278580000     0.9308900000 
 H        2.9783920000    -0.1839890000    -1.0837500000 
 H        2.9629630000    -0.7419240000     0.5963220000 
 H        4.9170470000     1.1063400000    -0.6263750000 
 H        4.8934780000     0.5627090000     1.0598230000 
 H        6.0578820000     2.6854820000     0.9620640000 
 H        4.5296400000     2.9138590000     1.8038530000 
 H        3.5320270000     3.8048800000    -0.3174370000 
 H        5.0910580000     3.6030940000    -1.1137000000 
 H        4.6794930000     5.3357560000     1.2063310000 
 H        4.9171280000     5.8274700000    -0.3224040000 
*
