! RI PBE def2-SVP def2-SVP/J NBO PAL2
% maxcore 2000
% output
    # printlevel mini
    print[ P_Basis ] 0
    print[ P_SCFInfo ] 1
    print[ P_SCFIterInfo ] 1
    print[ P_OrbEn ] 0
    print[ P_Cartesian ] 0
end
*xyz 0 1
 C        1.3970920000     0.9864100000    -0.0702630000 
 C        2.6672280000     0.6951100000    -0.2804110000 
 O        3.3998390000     0.0088130000     0.6474220000 
 C        4.6803900000    -0.2554070000     0.3757070000 
 C        5.4485800000    -0.9220890000     1.2424000000 
 C        6.8029740000    -1.1969530000     0.9454180000 
 N        7.9098550000    -1.4300980000     0.7199590000 
 H        0.8464560000     1.5301820000    -0.8240860000 
 H        0.8910580000     0.6938430000     0.8405190000 
 H        3.2094360000     0.9711200000    -1.1803740000 
 H        5.0605110000     0.0978040000    -0.5797170000 
 H        5.0493710000    -1.2652250000     2.1894260000 
*
