! RI PBE def2-SVP def2-SVP/J NBO PAL2
% maxcore 2000
% output
    # printlevel mini
    print[ P_Basis ] 0
    print[ P_SCFInfo ] 1
    print[ P_SCFIterInfo ] 1
    print[ P_OrbEn ] 0
    print[ P_Cartesian ] 0
end
*xyz 0 1
 C        1.0464280000    -0.6532490000    -0.0267110000 
 C        2.2866970000    -0.3207930000    -0.3330640000 
 O        3.1604420000     0.1207710000     0.6226450000 
 C        4.4717580000    -0.1782830000     0.4603330000 
 C        4.9894240000    -1.1314580000    -0.3130600000 
 C        5.3102820000     0.6633070000     1.2639180000 
 N        5.9968980000     1.3260000000     1.9061400000 
 H        0.3559880000    -0.9198560000    -0.8144850000 
 H        0.6962320000    -0.6482440000     0.9974830000 
 H        2.6830340000    -0.3145390000    -1.3446910000 
 H        4.3652190000    -1.8016520000    -0.8878080000 
 H        6.0616170000    -1.2544030000    -0.3562010000 
*
