! RI PBE def2-SVP def2-SVP/J NBO PAL2
% maxcore 2000
% output
    # printlevel mini
    print[ P_Basis ] 0
    print[ P_SCFInfo ] 1
    print[ P_SCFIterInfo ] 1
    print[ P_OrbEn ] 0
    print[ P_Cartesian ] 0
end
*xyz 0 1
 C        3.2117650000    -0.0931000000    -1.2374200000 
 C        2.4548550000    -0.3311380000     0.0547880000 
 O        1.2359060000    -0.3613380000     0.0354960000 
 C        3.1762190000    -0.5224440000     1.3104930000 
 C        2.3344540000    -0.7498820000     2.5262470000 
 C        4.5275290000    -0.4883500000     1.3279840000 
 N        5.3358750000    -0.6466360000     2.4014260000 
 H        2.4815890000     0.0211380000    -2.0362850000 
 H        3.8711460000    -0.9309590000    -1.4775320000 
 H        3.8232670000     0.8111820000    -1.1846460000 
 H        1.6553960000     0.0904440000     2.6895210000 
 H        2.9243150000    -0.8858190000     3.4350640000 
 H        1.7035040000    -1.6330700000     2.4004810000 
 H        5.0665780000    -0.3180230000     0.4029400000 
 H        4.9622470000    -0.8110910000     3.3169380000 
 H        6.3307650000    -0.6032130000     2.3040060000 
*
