! RI PBE def2-SVP def2-SVP/J NBO PAL2
% maxcore 2000
% output
    # printlevel mini
    print[ P_Basis ] 0
    print[ P_SCFInfo ] 1
    print[ P_SCFIterInfo ] 1
    print[ P_OrbEn ] 0
    print[ P_Cartesian ] 0
end
*xyz 0 1
 C        0.9945380000    -0.1827960000    -0.1862530000 
 C        2.4974080000    -0.1636040000    -0.1971720000 
 O        3.1466630000    -0.8290210000    -0.9646030000 
 C        3.1632620000     0.7415950000     0.8164730000 
 C        4.6822680000     0.6773610000     0.7298440000 
 C        5.3176490000     1.5502600000     1.7024760000 
 N        5.8032050000     2.2455750000     2.4787330000 
 H        0.6259560000    -0.8450930000    -0.9670350000 
 H        0.5994010000     0.8256060000    -0.3374050000 
 H        0.6299780000    -0.5224590000     0.7874980000 
 H        2.8168550000     0.4628450000     1.8173780000 
 H        2.8064410000     1.7651600000     0.6600260000 
 H        5.0168890000     0.9566140000    -0.2720640000 
 H        5.0282970000    -0.3465320000     0.8903040000 
*
