! RI PBE def2-SVP def2-SVP/J NBO PAL2
% maxcore 2000
% output
    # printlevel mini
    print[ P_Basis ] 0
    print[ P_SCFInfo ] 1
    print[ P_SCFIterInfo ] 1
    print[ P_OrbEn ] 0
    print[ P_Cartesian ] 0
end
*xyz 0 1
 C        0.8711740000     0.2072620000     0.0504330000 
 C        2.3845310000     0.2329390000    -0.0460350000 
 O        2.8196760000     1.2046930000    -0.9878200000 
 C        3.0364940000     0.4369380000     1.3146350000 
 C        4.5590030000     0.4172390000     1.2923730000 
 C        5.1668680000    -0.9479130000     1.0084370000 
 N        4.7665520000    -1.9224920000     2.0146880000 
 H        0.4280120000     0.0777130000    -0.9386520000 
 H        0.4950020000     1.1445820000     0.4753380000 
 H        0.5323180000    -0.6083460000     0.6936990000 
 H        2.7228560000    -0.7182100000    -0.4691880000 
 H        2.5164260000     2.0652890000    -0.6827430000 
 H        2.6749880000    -0.3375810000     1.9972300000 
 H        2.6901110000     1.3990720000     1.7161470000 
 H        4.9347790000     0.7712920000     2.2603350000 
 H        4.9223360000     1.1245140000     0.5411690000 
 H        6.2579760000    -0.8307360000     0.9206470000 
 H        4.8197650000    -1.3106970000     0.0361990000 
 H        5.1639920000    -1.6810130000     2.9151100000 
 H        5.1110390000    -2.8444250000     1.7797770000 
*
