! RI PBE def2-SVP def2-SVP/J NBO PAL2
% maxcore 2000
% output
    # printlevel mini
    print[ P_Basis ] 0
    print[ P_SCFInfo ] 1
    print[ P_SCFIterInfo ] 1
    print[ P_OrbEn ] 0
    print[ P_Cartesian ] 0
end
*xyz 0 1
 C        0.8500120000     0.1363670000    -0.1228500000 
 C        2.3665820000    -0.0602190000    -0.0837740000 
 O        3.0233430000     1.1702370000     0.1851400000 
 C        2.7380880000    -1.0967450000     0.9490480000 
 C        3.3853120000    -2.2295650000     0.7353040000 
 C        2.8272430000    -0.4733170000    -1.4185610000 
 N        3.1525750000    -0.8276770000    -2.4613390000 
 H        0.5017630000     0.4286530000     0.8711620000 
 H        0.3432390000    -0.7859830000    -0.4102090000 
 H        0.5984530000     0.9250910000    -0.8323680000 
 H        2.8452620000     1.4032930000     1.1017280000 
 H        2.4113910000    -0.8330440000     1.9543310000 
 H        3.7145140000    -2.5201390000    -0.2568600000 
 H        3.6058240000    -2.9065520000     1.5518570000 
*
