! RI PBE def2-SVP def2-SVP/J NBO PAL2
% maxcore 2000
% output
    # printlevel mini
    print[ P_Basis ] 0
    print[ P_SCFInfo ] 1
    print[ P_SCFIterInfo ] 1
    print[ P_OrbEn ] 0
    print[ P_Cartesian ] 0
end
*xyz 0 1
 C        0.9137400000     0.1180780000    -0.1050230000 
 C        2.4302390000    -0.0440010000    -0.0674030000 
 O        2.7140660000    -0.9542090000     0.9728560000 
 C        2.9452250000    -0.5217010000    -1.3568940000 
 C        3.3698960000    -0.9314010000    -2.4001880000 
 C        3.0578160000     1.2674890000     0.2282440000 
 N        3.5421880000     2.2779630000     0.4827720000 
 H        0.4698800000    -0.8520570000    -0.3263230000 
 H        0.6250300000     0.8359680000    -0.8715540000 
 H        0.5696590000     0.4638850000     0.8696200000 
 H        3.6564610000    -1.1529860000     0.9618450000 
 H        3.7464100000    -1.2937280000    -3.3282720000 
*
