! RI PBE def2-SVP def2-SVP/J NBO PAL2
% maxcore 2000
% output
    # printlevel mini
    print[ P_Basis ] 0
    print[ P_SCFInfo ] 1
    print[ P_SCFIterInfo ] 1
    print[ P_OrbEn ] 0
    print[ P_Cartesian ] 0
end
*xyz 0 1
 C        3.9961210000    -1.0969570000    -0.2885010000 
 C        2.7614870000    -0.2216850000    -0.2118140000 
 O        1.8990740000    -0.6366640000     0.8428670000 
 C        3.0274780000     1.2493190000    -0.0950830000 
 C        4.2127050000     1.8481510000    -0.0979630000 
 C        4.4098190000     3.3226360000     0.0275250000 
 N        5.3248380000     3.6182450000     1.1220510000 
 H        3.6932530000    -2.1435680000    -0.3409630000 
 H        4.6277770000    -0.9666270000     0.5951480000 
 H        4.5959400000    -0.8660320000    -1.1716600000 
 H        2.1624830000    -0.3853120000    -1.1160060000 
 H        2.3372160000    -0.4248640000     1.6728100000 
 H        2.1275840000     1.8537050000     0.0146000000 
 H        5.1268290000     1.2662740000    -0.1890220000 
 H        3.4282650000     3.8137580000     0.1084400000 
 H        4.8744990000     3.6959030000    -0.8930520000 
 H        4.8985990000     3.3792250000     2.0089760000 
 H        5.5450430000     4.6056020000     1.1494360000 
*
