! RI PBE def2-SVP def2-SVP/J NBO PAL2
% maxcore 2000
% output
    # printlevel mini
    print[ P_Basis ] 0
    print[ P_SCFInfo ] 1
    print[ P_SCFIterInfo ] 1
    print[ P_OrbEn ] 0
    print[ P_Cartesian ] 0
end
*xyz 0 1
 C        0.9615500000     0.0766860000    -0.1564820000 
 C        2.4604520000    -0.0278210000     0.0639800000 
 O        3.1884510000     0.5830380000    -0.9864360000 
 C        2.8608500000     0.5581990000     1.3820070000 
 C        3.4105650000    -0.1413870000     2.3729900000 
 C        3.7714670000     0.4404080000     3.6189660000 
 N        4.0674830000     0.8939530000     4.6361030000 
 H        0.7010940000    -0.3440470000    -1.1294610000 
 H        0.6388700000     1.1228190000    -0.1330530000 
 H        0.4098660000    -0.4595400000     0.6182120000 
 H        2.7594160000    -1.0799070000     0.0406330000 
 H        2.8244530000     1.4595820000    -1.1443490000 
 H        2.6831910000     1.6238140000     1.5147920000 
 H        3.6075920000    -1.2040970000     2.2659770000 
*
