! RI PBE def2-SVP def2-SVP/J NBO PAL2
% maxcore 2000
% output
    # printlevel mini
    print[ P_Basis ] 0
    print[ P_SCFInfo ] 1
    print[ P_SCFIterInfo ] 1
    print[ P_OrbEn ] 0
    print[ P_Cartesian ] 0
end
*xyz 0 1
 C        2.4426010000    -1.5114690000    -0.7051020000 
 C        2.3796470000    -0.0615030000    -0.2406340000 
 O        2.9833170000     0.0872510000     1.0298510000 
 C        2.9705120000     0.8940790000    -1.2551430000 
 C        2.2290840000     1.8239800000    -1.8461000000 
 C        4.4313630000     0.7510790000    -1.5842900000 
 N        5.2578560000     0.8951370000    -0.3826460000 
 H        1.9623500000    -2.1475490000     0.0405310000 
 H        3.4771940000    -1.8480650000    -0.8100960000 
 H        1.9333110000    -1.6455810000    -1.6631520000 
 H        1.3272560000     0.2106210000    -0.1086860000 
 H        3.9383930000     0.1781670000     0.8658610000 
 H        1.1727430000     1.9309370000    -1.6233810000 
 H        2.6496470000     2.5059700000    -2.5785770000 
 H        4.6920590000     1.4606150000    -2.3803340000 
 H        4.6149790000    -0.2524110000    -1.9826670000 
 H        5.2606040000     1.8602210000    -0.0737430000 
 H        6.2166820000     0.6305210000    -0.5681920000 
*
