! RI PBE def2-SVP def2-SVP/J NBO PAL2
% maxcore 2000
% output
    # printlevel mini
    print[ P_Basis ] 0
    print[ P_SCFInfo ] 1
    print[ P_SCFIterInfo ] 1
    print[ P_OrbEn ] 0
    print[ P_Cartesian ] 0
end
*xyz 0 1
 C        3.7449850000    -1.1514820000    -0.1654550000 
 C        2.9150440000     0.0666100000     0.2095840000 
 O        1.7071130000     0.0734360000    -0.5158060000 
 C        2.5989290000     0.1834080000     1.7220040000 
 C        1.9392990000     1.5317670000     1.9828800000 
 C        3.8587190000     0.0584470000     2.5721510000 
 N        1.6101730000    -0.8607630000     2.0171280000 
 H        3.8423020000    -1.1890170000    -1.2514970000 
 H        3.2553040000    -2.0778120000     0.1500300000 
 H        4.7475130000    -1.1211550000     0.2667690000 
 H        3.4638020000     0.9685740000    -0.0864080000 
 H        1.1032470000    -0.4571600000     0.0289200000 
 H        1.6385990000     1.6164160000     3.0318130000 
 H        1.0594750000     1.6618110000     1.3521650000 
 H        2.6359120000     2.3453150000     1.7704020000 
 H        3.6263950000     0.2535820000     3.6226440000 
 H        4.2917450000    -0.9422100000     2.5045840000 
 H        4.6228140000     0.7764810000     2.2594160000 
 H        1.0870460000    -0.6370780000     2.8539130000 
 H        2.0578040000    -1.7558800000     2.1718730000 
*
