! RI PBE def2-SVP def2-SVP/J NBO PAL2
% maxcore 2000
% output
    # printlevel mini
    print[ P_Basis ] 0
    print[ P_SCFInfo ] 1
    print[ P_SCFIterInfo ] 1
    print[ P_OrbEn ] 0
    print[ P_Cartesian ] 0
end
*xyz 0 1
 C        0.9140580000     0.1481010000     0.0181900000 
 C        2.4332400000     0.0556180000     0.0616190000 
 O        2.9105930000    -0.0999860000     1.3875390000 
 C        2.9284850000    -1.0100280000    -0.8104610000 
 C        3.3091220000    -1.9259230000    -1.4911910000 
 C        3.8142460000    -3.0092700000    -2.3229950000 
 N        4.8101990000    -3.8000300000    -1.6088460000 
 H        0.5814080000     0.9508950000     0.6781670000 
 H        0.4664070000    -0.7914940000     0.3503590000 
 H        0.5660920000     0.3519680000    -0.9965560000 
 H        2.8547000000     1.0088800000    -0.2743610000 
 H        2.7643460000    -1.0150540000     1.6459280000 
 H        4.1795670000    -2.5693890000    -3.2646020000 
 H        2.9826300000    -3.6695400000    -2.5916930000 
 H        5.5747810000    -3.2052430000    -1.3136670000 
 H        5.1954270000    -4.5044050000    -2.2260310000 
*
