! RI PBE def2-SVP def2-SVP/J NBO PAL2
% maxcore 2000
% output
    # printlevel mini
    print[ P_Basis ] 0
    print[ P_SCFInfo ] 1
    print[ P_SCFIterInfo ] 1
    print[ P_OrbEn ] 0
    print[ P_Cartesian ] 0
end
*xyz 0 1
 C        0.9416110000    -0.0573190000     0.0712440000 
 C        2.4632330000    -0.0000470000     0.0653080000 
 O        2.9854970000     0.4229330000    -1.1748360000 
 C        2.9617920000     0.8297280000     1.1626840000 
 C        3.3543670000     1.5416400000     2.0531850000 
 C        3.8055850000     2.3431570000     3.0647080000 
 N        4.1833230000     3.0220130000     3.9196010000 
 H        0.6078140000    -0.6996030000    -0.7446040000 
 H        0.5195460000     0.9409050000    -0.0669870000 
 H        0.5694520000    -0.4570240000     1.0161920000 
 H        2.8604280000    -1.0105500000     0.2083630000 
 H        2.6989520000     1.3277660000    -1.3350570000 
*
