! RI PBE def2-SVP def2-SVP/J NBO PAL2
% maxcore 2000
% output
    # printlevel mini
    print[ P_Basis ] 0
    print[ P_SCFInfo ] 1
    print[ P_SCFIterInfo ] 1
    print[ P_OrbEn ] 0
    print[ P_Cartesian ] 0
end
*xyz 0 1
 C        1.1305770000    -0.0584130000     0.5283700000 
 C        2.5683380000    -0.0809390000     0.0336780000 
 O        2.6985410000    -0.7716170000    -1.1948710000 
 C        2.8207210000    -2.1167500000    -1.1457240000 
 C        2.8200050000    -2.9191180000    -0.0876860000 
 C        3.0639160000     1.2805300000    -0.1890910000 
 N        3.4336020000     2.3596110000    -0.3227560000 
 H        0.7751760000    -1.0779240000     0.6762410000 
 H        0.4934800000     0.4378200000    -0.2039340000 
 H        1.0655160000     0.4813250000     1.4743920000 
 H        3.2264480000    -0.5402640000     0.7819210000 
 H        2.9346760000    -2.5021970000    -2.1526030000 
 H        2.6952050000    -2.5859760000     0.9337430000 
 H        2.9530080000    -3.9794780000    -0.2494600000 
*
