! RI PBE def2-SVP def2-SVP/J NBO PAL2
% maxcore 2000
% output
    # printlevel mini
    print[ P_Basis ] 0
    print[ P_SCFInfo ] 1
    print[ P_SCFIterInfo ] 1
    print[ P_OrbEn ] 0
    print[ P_Cartesian ] 0
end
*xyz 0 1
 C        0.6183650000     0.2541880000     0.4382360000 
 C        2.0585660000    -0.0259720000     0.1050050000 
 O        2.0791800000    -1.0698670000    -0.8699270000 
 C        3.2698460000    -1.4995900000    -1.3311370000 
 C        3.3633000000    -2.4682430000    -2.2424070000 
 C        4.4622770000    -0.8857050000    -0.8148870000 
 N        5.4173390000    -0.3928650000    -0.4009010000 
 H        0.5611570000     1.0499630000     1.1834870000 
 H        0.1341190000    -0.6351830000     0.8450950000 
 H        0.0695040000     0.5726970000    -0.4496340000 
 H        2.6148270000    -0.3445450000     0.9928930000 
 H        2.5501970000     0.8637950000    -0.3022850000 
 H        2.4705660000    -2.9358170000    -2.6361690000 
 H        4.3327570000    -2.7904380000    -2.5913700000 
*
