! RI PBE def2-SVP def2-SVP/J NBO PAL2
% maxcore 2000
% output
    # printlevel mini
    print[ P_Basis ] 0
    print[ P_SCFInfo ] 1
    print[ P_SCFIterInfo ] 1
    print[ P_OrbEn ] 0
    print[ P_Cartesian ] 0
end
*xyz 0 1
 C        0.9894570000     0.1493240000     0.0821960000 
 C        2.4567810000    -0.1716290000     0.1914750000 
 O        3.1793550000     0.7755250000    -0.5762010000 
 C        4.5616290000     0.5668590000    -0.5905270000 
 C        5.1825010000     1.5148810000    -1.5976530000 
 C        5.1501820000     0.7710380000     0.7498800000 
 N        5.6060580000     0.9292670000     1.7933090000 
 H        0.4054530000    -0.5677670000     0.6626500000 
 H        0.6587700000     0.1041330000    -0.9570840000 
 H        0.7858560000     1.1502980000     0.4663790000 
 H        2.6660800000    -1.1832560000    -0.1863070000 
 H        2.7868710000    -0.1323650000     1.2380140000 
 H        4.7866260000    -0.4742000000    -0.8721090000 
 H        4.9652420000     2.5472730000    -1.3226610000 
 H        4.7591280000     1.3134160000    -2.5819430000 
 H        6.2638230000     1.3788150000    -1.6368170000 
*
