! RI PBE def2-SVP def2-SVP/J NBO PAL2
% maxcore 2000
% output
    # printlevel mini
    print[ P_Basis ] 0
    print[ P_SCFInfo ] 1
    print[ P_SCFIterInfo ] 1
    print[ P_OrbEn ] 0
    print[ P_Cartesian ] 0
end
*xyz 0 1
 C        0.9183050000     0.0864430000     0.1618420000 
 C        2.4201610000    -0.0338240000     0.1675000000 
 O        2.9663960000     1.0505320000    -0.5511030000 
 C        4.3622020000     1.0211060000    -0.5990090000 
 C        4.8097030000     2.2377950000    -1.3960240000 
 C        6.2555960000     2.3090620000    -1.5105760000 
 N        7.4015450000     2.3488450000    -1.5907700000 
 H        0.4718960000    -0.7435260000     0.7133760000 
 H        0.5340830000     0.0682440000    -0.8596830000 
 H        0.6047480000     1.0208170000     0.6309880000 
 H        2.7362390000    -0.9811510000    -0.2942800000 
 H        2.8069640000    -0.0281170000     1.1975130000 
 H        4.7227250000     0.1014490000    -1.0823190000 
 H        4.7940970000     1.0539650000     0.4117980000 
 H        4.4436540000     3.1478360000    -0.9133490000 
 H        4.3727750000     2.2017040000    -2.3975020000 
*
