! RI PBE def2-SVP def2-SVP/J NBO PAL2
% maxcore 2000
% output
    # printlevel mini
    print[ P_Basis ] 0
    print[ P_SCFInfo ] 1
    print[ P_SCFIterInfo ] 1
    print[ P_OrbEn ] 0
    print[ P_Cartesian ] 0
end
*xyz 0 1
 C        2.7192870000     3.5919360000    -0.6011310000 
 C        3.1942540000     2.2328940000    -0.1536240000 
 O        4.4391620000     2.3697110000     0.4850540000 
 C        4.9599940000     1.1454570000     0.9424660000 
 C        6.2578760000     1.4130910000     1.6602990000 
 N        6.0387650000     2.2204390000     2.8380630000 
 C        7.2627680000     2.5877110000     3.5111030000 
 H        1.7540690000     3.5092310000    -1.1054420000 
 H        3.4337250000     4.0402070000    -1.2943030000 
 H        2.6046400000     4.2609640000     0.2540450000 
 H        3.2903370000     1.5547120000    -1.0160070000 
 H        2.4679460000     1.7765250000     0.5364340000 
 H        5.1316480000     0.4638550000     0.0955740000 
 H        4.2480100000     0.6652600000     1.6299740000 
 H        6.9679360000     1.8749090000     0.9502140000 
 H        6.6910380000     0.4529490000     1.9637450000 
 H        5.5258920000     3.0496380000     2.5651200000 
 H        7.9974700000     3.0940380000     2.8619260000 
 H        7.7449740000     1.6920400000     3.9142970000 
 H        7.0394970000     3.2468220000     4.3524040000 
*
