! RI PBE def2-SVP def2-SVP/J NBO PAL2
% maxcore 2000
% output
    # printlevel mini
    print[ P_Basis ] 0
    print[ P_SCFInfo ] 1
    print[ P_SCFIterInfo ] 1
    print[ P_OrbEn ] 0
    print[ P_Cartesian ] 0
end
*xyz 0 1
 C        3.2268350000    -1.5006880000     0.1322470000 
 C        2.5789040000    -0.1325460000    -0.0068370000 
 O        1.3585520000    -0.0796090000    -0.0829680000 
 C        3.3710080000     1.0656160000    -0.0482680000 
 C        4.7304200000     1.2413320000     0.0191870000 
 N        5.6613570000     0.2619110000     0.1462640000 
 N        5.2521450000     2.4975980000    -0.0423890000 
 H        2.4352030000    -2.2477250000     0.1402000000 
 H        3.7896050000    -1.5855850000     1.0681190000 
 H        3.8951380000    -1.7162600000    -0.7083830000 
 H        2.7805500000     1.9691640000    -0.1497670000 
 H        5.3852500000    -0.6974560000     0.2015030000 
 H        6.6377140000     0.4781580000     0.1894430000 
 H        4.6364270000     3.2810690000    -0.1371400000 
 H        6.2371010000     2.6698310000     0.0021010000 
*
