! RI PBE def2-SVP def2-SVP/J NBO PAL2
% maxcore 2000
% output
    # printlevel mini
    print[ P_Basis ] 0
    print[ P_SCFInfo ] 1
    print[ P_SCFIterInfo ] 1
    print[ P_OrbEn ] 0
    print[ P_Cartesian ] 0
end
*xyz 0 1
 C        3.1844510000     0.3901330000    -1.5147060000 
 C        2.5451820000     0.0682820000    -0.1764550000 
 O        2.5624640000    -1.3181990000     0.0831280000 
 C        3.1511640000     0.8610570000     0.9967710000 
 C        4.5777460000     0.4602990000     1.2721960000 
 N        5.5369750000     1.2386760000     0.6873620000 
 N        4.9276020000    -0.5870510000     1.9157210000 
 H        2.7030690000    -0.1953470000    -2.2995440000 
 H        4.2515620000     0.1525220000    -1.5091890000 
 H        3.0769270000     1.4501080000    -1.7609210000 
 H        1.4835510000     0.3304840000    -0.2199510000 
 H        3.4833950000    -1.5846480000     0.1942470000 
 H        2.5564610000     0.6547750000     1.8887380000 
 H        3.0715280000     1.9315420000     0.7836330000 
 H        5.3165200000     2.1861290000     0.4428250000 
 H        6.4866920000     1.0494360000     0.9625550000 
 H        4.1084900000    -1.0663880000     2.2764910000 
*
