! RI PBE def2-SVP def2-SVP/J NBO PAL2
% maxcore 2000
% output
    # printlevel mini
    print[ P_Basis ] 0
    print[ P_SCFInfo ] 1
    print[ P_SCFIterInfo ] 1
    print[ P_OrbEn ] 0
    print[ P_Cartesian ] 0
end
*xyz 0 1
 C        0.9814210000    -0.3151980000    -0.3142530000 
 C        2.4633840000    -0.4070830000    -0.2559930000 
 O        3.1721720000     0.3203360000     0.6679470000 
 C        2.5645390000     1.1381910000     1.5636920000 
 C        3.2625210000     1.8202120000     2.4584170000 
 N        3.0998280000    -1.1554850000    -1.0541190000 
 N        4.4666920000    -1.1469500000    -1.0083230000 
 H        0.6423940000     0.7019550000    -0.5334460000 
 H        0.5117180000    -0.6318310000     0.6217690000 
 H        0.6454740000    -0.9725480000    -1.1129380000 
 H        1.4848180000     1.1996950000     1.5002450000 
 H        4.3416830000     1.7537680000     2.5105220000 
 H        2.7457250000     2.4649320000     3.1546400000 
 H        4.8165030000    -2.0224090000    -1.3639170000 
 H        4.8561270000    -0.9203760000    -0.1001540000 
*
