! RI PBE def2-SVP def2-SVP/J NBO PAL2
% maxcore 2000
% output
    # printlevel mini
    print[ P_Basis ] 0
    print[ P_SCFInfo ] 1
    print[ P_SCFIterInfo ] 1
    print[ P_OrbEn ] 0
    print[ P_Cartesian ] 0
end
*xyz 0 1
 C        1.3181370000    -0.4615530000    -0.8876870000 
 C        2.5788580000    -0.2095450000    -1.6726190000 
 O        3.6735210000    -0.2799820000    -0.7668760000 
 C        4.9015100000    -0.0863330000    -1.2859790000 
 C        5.9878200000    -0.1928160000    -0.2712140000 
 N        5.0476570000     0.1547690000    -2.5219200000 
 N        6.3548830000     0.2911700000    -2.9796170000 
 H        0.4519420000    -0.4136360000    -1.5511420000 
 H        1.1901150000     0.2863000000    -0.1025070000 
 H        1.3384290000    -1.4487100000    -0.4216710000 
 H        2.5720530000     0.7745800000    -2.1519390000 
 H        2.7206760000    -0.9494330000    -2.4662770000 
 H        5.5988340000    -0.6042520000     0.6581080000 
 H        6.4229300000     0.7886570000    -0.0545020000 
 H        6.7881630000    -0.8322760000    -0.6519370000 
 H        6.3085050000     0.7245770000    -3.8905120000 
 H        6.9218560000     0.8810840000    -2.3763200000 
*
