! RI PBE def2-SVP def2-SVP/J NBO PAL2
% maxcore 2000
% output
    # printlevel mini
    print[ P_Basis ] 0
    print[ P_SCFInfo ] 1
    print[ P_SCFIterInfo ] 1
    print[ P_OrbEn ] 0
    print[ P_Cartesian ] 0
end
*xyz 0 1
 C        1.0518460000    -0.0369620000     0.0452290000 
 C        2.5570470000    -0.0017770000    -0.0119900000 
 O        3.0679470000    -0.1118470000     1.2973380000 
 C        4.4693630000    -0.1009840000     1.3403560000 
 C        4.9670110000    -0.3450250000     2.7474820000 
 N        4.1266770000    -1.0908160000     3.5128500000 
 N        6.1062380000     0.0270040000     3.1789440000 
 H        0.6343120000     0.0514820000    -0.9598590000 
 H        0.6696300000     0.7869890000     0.6507020000 
 H        0.7034980000    -0.9757900000     0.4802740000 
 H        2.9055510000     0.9372870000    -0.4669930000 
 H        2.9436200000    -0.8263970000    -0.6296710000 
 H        4.8661980000     0.8604370000     0.9875550000 
 H        4.8768180000    -0.8912120000     0.6900160000 
 H        3.1553450000    -1.0956430000     3.2543190000 
 H        4.3549070000    -1.1495200000     4.4907640000 
 H        6.6096030000     0.5440850000     2.4640950000 
*
