! RI PBE def2-SVP def2-SVP/J NBO PAL2
% maxcore 2000
% output
    # printlevel mini
    print[ P_Basis ] 0
    print[ P_SCFInfo ] 1
    print[ P_SCFIterInfo ] 1
    print[ P_OrbEn ] 0
    print[ P_Cartesian ] 0
end
*xyz 0 1
 C        3.1825380000    -1.2545960000    -0.2858770000 
 C        2.4286260000    -0.1097870000     0.3266470000 
 O        1.2233040000    -0.0284350000     0.2669530000 
 C        3.2020720000     0.9610360000     1.0321560000 
 C        2.4857240000     2.1081610000     1.6494850000 
 N        4.4676800000     0.7923190000     1.0453460000 
 O        5.1195680000     1.8009560000     1.7030190000 
 H        2.4704240000    -1.9323640000    -0.7525490000 
 H        3.7629050000    -1.7802840000     0.4746990000 
 H        3.8976580000    -0.8890620000    -1.0252230000 
 H        1.4151660000     2.0006030000     1.4896190000 
 H        2.8328980000     3.0492520000     1.2162650000 
 H        2.6980850000     2.1557000000     2.7202340000 
 H        6.0455420000     1.5480020000     1.6357170000 
*
