! RI PBE def2-SVP def2-SVP/J NBO PAL2
% maxcore 2000
% output
    # printlevel mini
    print[ P_Basis ] 0
    print[ P_SCFInfo ] 1
    print[ P_SCFIterInfo ] 1
    print[ P_OrbEn ] 0
    print[ P_Cartesian ] 0
end
*xyz 0 1
 C        1.8232310000    -0.9584920000    -0.3037360000 
 C        2.4164990000     0.2785560000     0.3060210000 
 O        2.2177600000     0.6053820000     1.4475120000 
 C        3.3205630000     1.1080880000    -0.6017520000 
 C        4.7086180000     0.5644970000    -0.5625670000 
 N        5.1942930000     0.0087330000    -1.5915340000 
 O        6.4755840000    -0.4554110000    -1.3700630000 
 H        1.3692480000    -1.5794550000     0.4662020000 
 H        2.5834970000    -1.5185750000    -0.8538590000 
 H        1.0585020000    -0.6653250000    -1.0303030000 
 H        3.3112480000     2.1335280000    -0.2253630000 
 H        2.9619680000     1.0837200000    -1.6326350000 
 H        5.2830090000     0.6337160000     0.3627170000 
 H        6.7258700000    -0.8230590000    -2.2223270000 
*
