! RI PBE def2-SVP def2-SVP/J NBO PAL2
% maxcore 2000
% output
    # printlevel mini
    print[ P_Basis ] 0
    print[ P_SCFInfo ] 1
    print[ P_SCFIterInfo ] 1
    print[ P_OrbEn ] 0
    print[ P_Cartesian ] 0
end
*xyz 0 1
 C        2.4844030000     0.8988000000     1.3257790000 
 C        3.3561620000    -0.1123940000     0.6418720000 
 O        3.6728930000    -1.1465440000     1.1850610000 
 C        3.7855400000     0.2340430000    -0.7667320000 
 C        5.1647400000    -0.2087870000    -1.2446240000 
 N        5.5846130000    -1.4048000000    -0.7898580000 
 O        5.7849200000     0.4805140000    -2.0264440000 
 H        2.1115100000     0.5021390000     2.2680470000 
 H        1.6524770000     1.1886530000     0.6781210000 
 H        3.0673160000     1.8061140000     1.5127560000 
 H        3.7122960000     1.3058390000    -0.9493300000 
 H        3.0520690000    -0.2428540000    -1.4309010000 
 H        5.0964660000    -1.8316130000    -0.0148970000 
 H        6.5144950000    -1.6970000000    -1.0373400000 
*
