! RI PBE def2-SVP def2-SVP/J NBO PAL2
% maxcore 2000
% output
    # printlevel mini
    print[ P_Basis ] 0
    print[ P_SCFInfo ] 1
    print[ P_SCFIterInfo ] 1
    print[ P_OrbEn ] 0
    print[ P_Cartesian ] 0
end
*xyz 0 1
 C        0.6213590000     0.3548930000    -0.7550940000 
 C        1.9625150000    -0.2737710000    -0.8887160000 
 O        2.8298550000    -0.3169950000     0.1474790000 
 C        2.5210790000     0.2098570000     1.3624150000 
 C        3.3850850000     0.1584470000     2.3629270000 
 N        2.2820070000    -0.7765230000    -2.0118420000 
 O        3.5505840000    -1.3305360000    -2.0126360000 
 H        0.6962990000     1.4140320000    -0.4936190000 
 H        0.0167740000    -0.1422120000     0.0085410000 
 H        0.1157250000     0.2662020000    -1.7139360000 
 H        1.5429480000     0.6652280000     1.4588210000 
 H        4.3582080000    -0.3009470000     2.2475870000 
 H        3.1155780000     0.5842210000     3.3188170000 
 H        3.6280940000    -1.6555870000    -2.9132350000 
*
