! RI PBE def2-SVP def2-SVP/J NBO PAL2
% maxcore 2000
% output
    # printlevel mini
    print[ P_Basis ] 0
    print[ P_SCFInfo ] 1
    print[ P_SCFIterInfo ] 1
    print[ P_OrbEn ] 0
    print[ P_Cartesian ] 0
end
*xyz 0 1
 C        1.1635710000    -0.3221560000     0.0312830000 
 C        2.6687940000    -0.3382800000     0.0660690000 
 O        3.1316220000     0.7519950000    -0.7273760000 
 C        4.4584860000     0.9137050000    -0.8250000000 
 C        4.8707860000     2.0685260000    -1.6664760000 
 N        5.2372970000     0.1081590000    -0.2213780000 
 O        6.5736800000     0.4517190000    -0.4527270000 
 H        0.7706310000    -1.1463780000     0.6303390000 
 H        0.7949430000    -0.4347520000    -0.9901360000 
 H        0.7731810000     0.6130720000     0.4372440000 
 H        3.0776810000    -1.2704710000    -0.3356270000 
 H        3.0560870000    -0.2284320000     1.0836400000 
 H        3.9921530000     2.5787910000    -2.0559110000 
 H        5.4968950000     1.7253820000    -2.4922750000 
 H        5.4733320000     2.7637180000    -1.0787970000 
 H        7.0449440000    -0.2188980000     0.0468180000 
*
