! RI PBE def2-SVP def2-SVP/J NBO PAL2
% maxcore 2000
% output
    # printlevel mini
    print[ P_Basis ] 0
    print[ P_SCFInfo ] 1
    print[ P_SCFIterInfo ] 1
    print[ P_OrbEn ] 0
    print[ P_Cartesian ] 0
end
*xyz 0 1
 C        1.0265110000    -0.0150960000    -0.0968210000 
 C        2.5318180000     0.0451890000    -0.0840800000 
 O        2.9925400000    -0.2565740000     1.2142200000 
 C        4.3891910000    -0.2257620000     1.3210790000 
 C        4.8549420000    -0.5506200000     2.7270810000 
 N        3.8712130000    -0.8052880000     3.6104110000 
 O        6.0387640000    -0.5680590000     2.9911270000 
 H        0.6486760000     0.2162830000    -1.0948040000 
 H        0.6048510000     0.7065620000     0.6056380000 
 H        0.6772560000    -1.0118220000     0.1798950000 
 H        2.8836320000     1.0454790000    -0.3769500000 
 H        2.9559730000    -0.6723690000    -0.8019360000 
 H        4.7902950000     0.7649360000     1.0660450000 
 H        4.8604070000    -0.9532580000     0.6457470000 
 H        2.9111650000    -0.7718220000     3.3165390000 
 H        4.1153550000    -1.0272690000     4.5591090000 
*
