! RI PBE def2-SVP def2-SVP/J NBO PAL2
% maxcore 2000
% output
    # printlevel mini
    print[ P_Basis ] 0
    print[ P_SCFInfo ] 1
    print[ P_SCFIterInfo ] 1
    print[ P_OrbEn ] 0
    print[ P_Cartesian ] 0
end
*xyz 0 1
 C        0.9718180000    -0.1749740000    -0.1112050000 
 C        2.4771660000    -0.1061900000    -0.0146590000 
 O        3.0260460000    -0.7937530000    -1.1175890000 
 C        2.9905380000     1.3242630000     0.0004820000 
 N        4.4403500000     1.3099970000    -0.0293760000 
 C        5.1132920000     2.5403350000     0.3193060000 
 C        5.1176460000     1.3896840000     1.2499020000 
 H        0.6456030000    -1.2156440000    -0.1442130000 
 H        0.6267900000     0.3181550000    -1.0232830000 
 H        0.5019020000     0.3065090000     0.7497970000 
 H        2.7991520000    -0.5923880000     0.9217810000 
 H        3.9410110000    -0.4902210000    -1.1847010000 
 H        2.5965630000     1.8640410000     0.8773880000 
 H        2.6383820000     1.8359430000    -0.9016270000 
 H        4.4922070000     3.3913360000     0.5874010000 
 H        5.9979380000     2.7803520000    -0.2601290000 
 H        4.4995140000     1.4683460000     2.1408820000 
 H        6.0053800000     0.7768700000     1.3582530000 
*
