! RI PBE def2-SVP def2-SVP/J NBO PAL2
% maxcore 2000
% output
    # printlevel mini
    print[ P_Basis ] 0
    print[ P_SCFInfo ] 1
    print[ P_SCFIterInfo ] 1
    print[ P_OrbEn ] 0
    print[ P_Cartesian ] 0
end
*xyz 0 1
 C        0.9188300000    -0.1800920000    -0.3780600000 
 C        2.3123290000    -0.0557160000     0.2154550000 
 O        3.2006090000     0.2715780000    -0.8261890000 
 C        2.3538450000     1.0800630000     1.2520370000 
 N        3.7401290000     1.3584730000     1.5882400000 
 C        2.6961320000    -1.3486210000     0.8958910000 
 C        3.7504220000    -2.0865880000     0.5831210000 
 H        0.6309610000     0.7613510000    -0.8504610000 
 H        0.1840220000    -0.4307270000     0.3907990000 
 H        0.9077920000    -0.9659390000    -1.1348310000 
 H        3.9240130000     0.7489470000    -0.3876720000 
 H        1.7210390000     0.8199500000     2.1121460000 
 H        1.9317250000     1.9743560000     0.7853870000 
 H        4.1229070000     0.6393250000     2.1894280000 
 H        3.8438210000     2.2496660000     2.0518890000 
 H        2.0324950000    -1.6653050000     1.6996120000 
 H        4.4091260000    -1.7930530000    -0.2264400000 
 H        3.9713020000    -3.0081790000     1.1092680000 
*
