! RI PBE def2-SVP def2-SVP/J NBO PAL2
% maxcore 2000
% output
    # printlevel mini
    print[ P_Basis ] 0
    print[ P_SCFInfo ] 1
    print[ P_SCFIterInfo ] 1
    print[ P_OrbEn ] 0
    print[ P_Cartesian ] 0
end
*xyz 0 1
 C        1.0766190000     0.1489300000    -0.0488300000 
 C        2.5926350000     0.0799220000     0.0038030000 
 O        3.0970250000     1.3640320000    -0.2846850000 
 C        3.0820470000    -0.3306610000     1.4019380000 
 N        4.5237310000    -0.1674980000     1.4578370000 
 C        3.0923490000    -0.9053200000    -0.9753980000 
 C        3.5160300000    -1.7190570000    -1.7509280000 
 H        0.7259480000     0.8864970000     0.6755280000 
 H        0.6352830000    -0.8229770000     0.1781210000 
 H        0.7537310000     0.4552230000    -1.0440210000 
 H        3.9963680000     1.3585180000     0.0815970000 
 H        2.7275850000    -1.3436660000     1.6322790000 
 H        2.6283900000     0.3620760000     2.1155630000 
 H        4.9937770000    -0.9328070000     0.9901990000 
 H        4.8604710000    -0.1227720000     2.4088380000 
 H        3.8829220000    -2.4265400000    -2.4566310000 
*
