! RI PBE def2-SVP def2-SVP/J NBO PAL2
% maxcore 2000
% output
    # printlevel mini
    print[ P_Basis ] 0
    print[ P_SCFInfo ] 1
    print[ P_SCFIterInfo ] 1
    print[ P_OrbEn ] 0
    print[ P_Cartesian ] 0
end
*xyz 0 1
 C        3.2259500000    -0.8463500000    -1.2661410000 
 C        2.5399640000    -0.1608290000    -0.0991140000 
 O        2.3558660000    -1.0445590000     0.9914680000 
 C        3.2259290000     1.1392240000     0.3813110000 
 N        2.4497670000     1.8223540000     1.3998430000 
 C        4.6217030000     0.8487730000     0.8530070000 
 C        5.0842870000     1.0890710000     2.0722380000 
 H        2.6223570000    -1.6891720000    -1.6070540000 
 H        4.2076240000    -1.2344540000    -0.9836080000 
 H        3.3608730000    -0.1579920000    -2.1051490000 
 H        1.5247220000     0.1160480000    -0.4038180000 
 H        3.2238030000    -1.2188840000     1.3740350000 
 H        3.3018490000     1.8044200000    -0.4890500000 
 H        2.1138560000     1.1349020000     2.0671890000 
 H        1.6287200000     2.2424150000     0.9828460000 
 H        5.2812640000     0.3929460000     0.1185530000 
 H        4.4650220000     1.5738640000     2.8181710000 
 H        6.1036440000     0.8397220000     2.3439830000 
*
