! RI PBE def2-SVP def2-SVP/J NBO PAL2
% maxcore 2000
% output
    # printlevel mini
    print[ P_Basis ] 0
    print[ P_SCFInfo ] 1
    print[ P_SCFIterInfo ] 1
    print[ P_OrbEn ] 0
    print[ P_Cartesian ] 0
end
*xyz 0 1
 C        0.8817000000     0.0408520000    -0.0108100000 
 C        2.3893230000    -0.0961720000     0.0368660000 
 O        2.8440980000    -0.5223290000     1.3032540000 
 C        2.9548220000    -1.0143740000    -1.0720090000 
 N        4.4073070000    -1.0253870000    -1.1494480000 
 C        2.4614260000    -2.3767030000    -0.8712660000 
 C        2.0456700000    -3.4785070000    -0.6356730000 
 H        0.5441360000     0.7153600000     0.7776480000 
 H        0.4002630000    -0.9303070000     0.1328830000 
 H        0.5524100000     0.4412500000    -0.9733280000 
 H        2.8506250000     0.8862080000    -0.1128320000 
 H        2.4693710000    -1.3964980000     1.4642080000 
 H        2.5707770000    -0.6547050000    -2.0344800000 
 H        4.7799670000    -1.2442680000    -0.2315800000 
 H        4.7369420000    -0.0965700000    -1.3860140000 
 H        1.6881720000    -4.4660600000    -0.4614390000 
*
