! RI PBE def2-SVP def2-SVP/J NBO PAL2
% maxcore 2000
% output
    # printlevel mini
    print[ P_Basis ] 0
    print[ P_SCFInfo ] 1
    print[ P_SCFIterInfo ] 1
    print[ P_OrbEn ] 0
    print[ P_Cartesian ] 0
end
*xyz 0 1
 C        1.2382730000     0.5263440000     0.2741830000 
 C        2.6857920000     0.3111040000     0.6489970000 
 O        2.7760190000    -0.8042340000     1.5061620000 
 C        3.5593680000     0.0709450000    -0.5760140000 
 N        4.8960740000    -0.3475750000    -0.1912700000 
 C        5.5700380000    -1.0729150000    -1.2447770000 
 C        5.7083070000     0.7522560000     0.2838520000 
 H        0.6356200000     0.6787630000     1.1709840000 
 H        0.8483980000    -0.3477000000    -0.2533110000 
 H        1.1283080000     1.4041340000    -0.3675820000 
 H        3.0439860000     1.2109390000     1.1755560000 
 H        3.6839390000    -1.1254220000     1.3985220000 
 H        3.5722100000     0.9677150000    -1.2205470000 
 H        3.1079480000    -0.7433500000    -1.1515290000 
 H        4.9722760000    -1.9358630000    -1.5441630000 
 H        6.5350930000    -1.4361700000    -0.8838990000 
 H        5.7544310000    -0.4538590000    -2.1401920000 
 H        5.2210040000     1.2563180000     1.1195220000 
 H        5.9012210000     1.5018170000    -0.5037360000 
 H        6.6702940000     0.3744530000     0.6364320000 
*
