! RI PBE def2-SVP def2-SVP/J NBO PAL2
% maxcore 2000
% output
    # printlevel mini
    print[ P_Basis ] 0
    print[ P_SCFInfo ] 1
    print[ P_SCFIterInfo ] 1
    print[ P_OrbEn ] 0
    print[ P_Cartesian ] 0
end
*xyz 0 1
 C        3.1003310000     1.2502200000    -1.1507040000 
 C        2.7515400000     0.0729040000    -0.2568500000 
 O        3.2069050000    -1.1472140000    -0.8101150000 
 C        3.2374730000     0.2207880000     1.1946920000 
 N        2.8568930000    -0.9360940000     2.0052480000 
 C        4.7460800000     0.4247690000     1.3067050000 
 N        5.4541560000    -0.7578250000     0.8165140000 
 H        2.6326500000     1.1198130000    -2.1280750000 
 H        4.1792110000     1.3223730000    -1.3081960000 
 H        2.7494650000     2.1950050000    -0.7244570000 
 H        1.6582740000    -0.0145310000    -0.2144380000 
 H        4.1586000000    -1.1912710000    -0.5995450000 
 H        2.7648610000     1.1138230000     1.6181930000 
 H        2.7673630000    -1.7392240000     1.3903470000 
 H        1.9500900000    -0.7931860000     2.4288270000 
 H        4.9800610000     0.6550390000     2.3544180000 
 H        5.0534020000     1.2843320000     0.7054880000 
 H        5.3006460000    -1.5197350000     1.4685720000 
 H        6.4516800000    -0.5931880000     0.7798880000 
*
