! RI PBE def2-SVP def2-SVP/J NBO PAL2
% maxcore 2000
% output
    # printlevel mini
    print[ P_Basis ] 0
    print[ P_SCFInfo ] 1
    print[ P_SCFIterInfo ] 1
    print[ P_OrbEn ] 0
    print[ P_Cartesian ] 0
end
*xyz 0 1
 C        1.0275510000    -0.1189280000     0.3292680000 
 C        2.5177830000    -0.0589640000     0.0730070000 
 O        3.0543160000    -1.3487200000    -0.1823110000 
 C        2.8946370000     0.8990070000    -1.0538850000 
 N        2.3876000000     0.4890560000    -2.3428430000 
 C        1.3368720000     1.0816320000    -2.9513410000 
 O        0.6687360000     1.9740350000    -2.4822710000 
 H        0.8132550000    -0.8054390000     1.1505790000 
 H        0.4957690000    -0.4636130000    -0.5631600000 
 H        0.6301790000     0.8659330000     0.5805060000 
 H        3.0277040000     0.2951840000     0.9756310000 
 H        2.3979030000    -1.8471480000    -0.6763180000 
 H        3.9844140000     0.9607370000    -1.1096190000 
 H        2.5003530000     1.8961050000    -0.8486480000 
 H        2.8848970000    -0.2227780000    -2.8497950000 
 H        1.1409120000     0.6552010000    -3.9535900000 
*
