! RI PBE def2-SVP def2-SVP/J NBO PAL2
% maxcore 2000
% output
    # printlevel mini
    print[ P_Basis ] 0
    print[ P_SCFInfo ] 1
    print[ P_SCFIterInfo ] 1
    print[ P_OrbEn ] 0
    print[ P_Cartesian ] 0
end
*xyz 0 1
 C        1.5462880000    -0.1128560000     3.2171100000 
 C        2.8324330000    -0.0327480000     2.9286510000 
 O        3.2380960000    -0.0374110000     1.6153960000 
 C        4.5373010000     0.0429680000     1.3306970000 
 N        5.4502280000     0.1254090000     2.2079150000 
 N        6.7011660000     0.1950430000     1.6109820000 
 C        7.6478010000     0.2788360000     2.4480560000 
 H        1.2332520000    -0.1086480000     4.2515170000 
 H        0.7923800000    -0.1829900000     2.4431760000 
 H        3.6334460000     0.0392970000     3.6521250000 
 H        4.7246750000     0.0297110000     0.2589480000 
 H        8.6597140000     0.3375330000     2.0602790000 
 H        7.4761090000     0.2933570000     3.5255470000 
*
