! RI PBE def2-SVP def2-SVP/J NBO PAL2
% maxcore 2000
% output
    # printlevel mini
    print[ P_Basis ] 0
    print[ P_SCFInfo ] 1
    print[ P_SCFIterInfo ] 1
    print[ P_OrbEn ] 0
    print[ P_Cartesian ] 0
end
*xyz 0 1
 C        0.9930240000    -0.2160180000    -0.1094780000 
 C        2.4890000000    -0.2958070000    -0.0040400000 
 O        3.1544310000    -0.9862750000    -0.7373080000 
 C        3.1292990000     0.5406410000     1.0780200000 
 N        4.5388530000     0.3748470000     1.0689840000 
 N        5.2793990000     1.0293160000     1.9499090000 
 C        6.5442890000     0.8820470000     1.9454250000 
 H        0.6465860000    -0.8560150000    -0.9184610000 
 H        0.6801370000     0.8149740000    -0.2952090000 
 H        0.5292740000    -0.5265370000     0.8306580000 
 H        2.6825400000     0.2485870000     2.0403480000 
 H        2.8329040000     1.5879570000     0.9160400000 
 H        4.9362940000    -0.2505070000     0.3782430000 
 H        7.1173410000     1.4327600000     2.6799060000 
 H        7.0683200000     0.2310300000     1.2399530000 
*
