! RI PBE def2-SVP def2-SVP/J NBO PAL2
% maxcore 2000
% output
    # printlevel mini
    print[ P_Basis ] 0
    print[ P_SCFInfo ] 1
    print[ P_SCFIterInfo ] 1
    print[ P_OrbEn ] 0
    print[ P_Cartesian ] 0
end
*xyz 0 1
 C        0.7458980000     0.3131770000     0.0868710000 
 C        2.2631790000     0.2273610000     0.1740940000 
 O        2.6755470000     0.2331230000     1.5115570000 
 C        2.7765940000    -0.9664520000    -0.5593490000 
 N        3.5174580000    -1.7976850000     0.0469190000 
 N        3.9262370000    -2.8591980000    -0.7557970000 
 C        4.6543970000    -3.6864870000    -0.1326650000 
 H        0.4061940000     1.2045990000     0.6154430000 
 H        0.2907060000    -0.5613590000     0.5558630000 
 H        0.4117450000     0.3760840000    -0.9517210000 
 H        2.6829880000     1.1084740000    -0.3428570000 
 H        3.2625090000    -0.5301300000     1.6181890000 
 H        2.5108210000    -1.1045660000    -1.6099050000 
 H        5.0221830000    -4.5493020000    -0.6792510000 
 H        4.9168430000    -3.5568400000     0.9188070000 
*
