! RI PBE def2-SVP def2-SVP/J NBO PAL2
% maxcore 2000
% output
    # printlevel mini
    print[ P_Basis ] 0
    print[ P_SCFInfo ] 1
    print[ P_SCFIterInfo ] 1
    print[ P_OrbEn ] 0
    print[ P_Cartesian ] 0
end
*xyz 0 1
 C        1.2579650000    -0.4248380000    -0.1438200000 
 C        2.6808490000     0.0523870000    -0.2493260000 
 O        3.0716750000     0.5446880000     1.0388970000 
 C        4.2994920000     1.0133490000     1.1541000000 
 N        5.1314290000     1.0454400000     0.1908610000 
 N        6.3395090000     1.5892360000     0.6051750000 
 C        7.2054520000     1.6446290000    -0.3171220000 
 H        0.9261780000    -0.8081360000    -1.1109820000 
 H        0.5923570000     0.3893740000     0.1485830000 
 H        1.1670780000    -1.2262250000     0.5917020000 
 H        2.7941190000     0.8577170000    -0.9797950000 
 H        3.3656180000    -0.7488910000    -0.5391940000 
 H        4.5286630000     1.3701840000     2.1576120000 
 H        8.1786310000     2.0583350000    -0.0724920000 
 H        7.0023940000     1.2944500000    -1.3307100000 
*
