! RI PBE def2-SVP def2-SVP/J NBO PAL2
% maxcore 2000
% output
    # printlevel mini
    print[ P_Basis ] 0
    print[ P_SCFInfo ] 1
    print[ P_SCFIterInfo ] 1
    print[ P_OrbEn ] 0
    print[ P_Cartesian ] 0
end
*xyz 0 1
 C        2.6388530000    -0.4336560000     1.8606680000 
 C        2.3304140000    -1.5335930000     0.8746270000 
 O        3.0163680000    -2.7486050000     1.2127110000 
 C        4.2651770000    -2.8768290000     0.7602790000 
 O        4.8422350000    -2.0474510000     0.1075030000 
 C        4.8460880000    -4.2158840000     1.1320980000 
 N        6.2833590000    -4.1942320000     1.0001220000 
 H        2.0528510000     0.4553230000     1.6152920000 
 H        3.6956270000    -0.1666210000     1.8238940000 
 H        2.3852540000    -0.7401360000     2.8773990000 
 H        2.6077010000    -1.2425240000    -0.1398680000 
 H        1.2736560000    -1.8022080000     0.8956040000 
 H        4.3331480000    -4.9456480000     0.4843440000 
 H        4.5417160000    -4.4497930000     2.1566640000 
 H        6.5391890000    -3.5569810000     0.2548340000 
 H        6.6469530000    -5.1102610000     0.7801470000 
*
