! RI PBE def2-SVP def2-SVP/J NBO PAL2
% maxcore 2000
% output
    # printlevel mini
    print[ P_Basis ] 0
    print[ P_SCFInfo ] 1
    print[ P_SCFIterInfo ] 1
    print[ P_OrbEn ] 0
    print[ P_Cartesian ] 0
end
*xyz 0 1
 C        2.8217350000    -0.9791130000    -2.6364040000 
 C        2.3706500000    -1.2187810000    -1.4126150000 
 O        3.0718910000    -1.3550770000    -0.2591010000 
 C        4.4465640000    -1.1201880000    -0.2609230000 
 O        5.1872650000    -2.2493270000    -0.6493520000 
 N        5.7614780000    -2.0854430000    -1.8905440000 
 C        6.4219510000    -3.1034810000    -2.2419990000 
 H        2.0989860000    -0.8761400000    -3.4342260000 
 H        3.8717980000    -0.9030550000    -2.8834690000 
 H        1.3122270000    -1.3286010000    -1.2033160000 
 H        4.7011280000    -0.9287670000     0.7815450000 
 H        4.7115280000    -0.2761850000    -0.9037360000 
 H        6.9105390000    -3.0503510000    -3.2071220000 
 H        6.5058590000    -3.9950890000    -1.6234170000 
*
