! RI PBE def2-SVP def2-SVP/J NBO PAL2
% maxcore 2000
% output
    # printlevel mini
    print[ P_Basis ] 0
    print[ P_SCFInfo ] 1
    print[ P_SCFIterInfo ] 1
    print[ P_OrbEn ] 0
    print[ P_Cartesian ] 0
end
*xyz 0 1
 C        2.8943030000     1.3448250000    -1.2895310000 
 C        2.2913120000     0.2801700000    -0.4247140000 
 O        1.1658990000     0.3368440000     0.0020660000 
 C        3.1273490000    -0.9426230000    -0.1019250000 
 O        4.4901790000    -0.7177380000    -0.3953670000 
 N        5.1501960000    -1.9196920000    -0.5091830000 
 C        6.3953720000    -1.7638850000    -0.6604310000 
 H        2.1514770000     2.1147720000    -1.4884490000 
 H        3.2592320000     0.9112930000    -2.2244290000 
 H        3.7665860000     1.7774610000    -0.7926490000 
 H        2.7477310000    -1.7761500000    -0.7036150000 
 H        2.9840710000    -1.1955980000     0.9532250000 
 H        6.9834300000    -2.6664520000    -0.7722690000 
 H        6.8708720000    -0.7845260000    -0.6814290000 
*
