! RI PBE def2-SVP def2-SVP/J NBO PAL2
% maxcore 2000
% output
    # printlevel mini
    print[ P_Basis ] 0
    print[ P_SCFInfo ] 1
    print[ P_SCFIterInfo ] 1
    print[ P_OrbEn ] 0
    print[ P_Cartesian ] 0
end
*xyz 0 1
 C        0.8071560000     0.3976420000     0.1453290000 
 C        2.2631690000    -0.0139380000     0.1681080000 
 O        2.3513590000    -1.2331480000     0.8730210000 
 C        2.8084600000    -0.1396530000    -1.2428020000 
 O        4.2308600000    -0.1955430000    -1.3116560000 
 N        4.7045580000    -1.3274360000    -0.7028640000 
 C        5.9608430000    -1.4394290000    -0.7921000000 
 H        0.4156480000     0.4066090000     1.1634310000 
 H        0.2159480000    -0.3148910000    -0.4356540000 
 H        0.6833230000     1.3944990000    -0.2834120000 
 H        2.8515100000     0.7644880000     0.6805810000 
 H        3.2017590000    -1.6306400000     0.6408580000 
 H        2.5585740000     0.7480690000    -1.8268050000 
 H        2.3794190000    -1.0225430000    -1.7301660000 
 H        6.4068130000    -2.3099130000    -0.3275380000 
 H        6.5764310000    -0.7057740000    -1.3097220000 
*
