! RI PBE def2-SVP def2-SVP/J NBO PAL2
% maxcore 2000
% output
    # printlevel mini
    print[ P_Basis ] 0
    print[ P_SCFInfo ] 1
    print[ P_SCFIterInfo ] 1
    print[ P_OrbEn ] 0
    print[ P_Cartesian ] 0
end
*xyz 0 1
 C        3.1419470000     0.7759490000     2.2403210000 
 C        2.4466300000    -0.3256480000     1.4775810000 
 O        3.1186530000    -1.5785090000     1.6280960000 
 C        4.1344240000    -1.8081460000     0.7683240000 
 O        4.4736870000    -1.0512450000    -0.1113010000 
 N        4.7021840000    -3.0041640000     1.0400480000 
 C        5.7995460000    -3.5289270000     0.2749820000 
 H        2.5681370000     1.7024700000     2.1583830000 
 H        4.1379970000     0.9547990000     1.8329010000 
 H        3.2312370000     0.5217120000     3.2986200000 
 H        2.3807470000    -0.0844710000     0.4155080000 
 H        1.4426920000    -0.5037020000     1.8664640000 
 H        4.3094000000    -3.5359570000     1.7960800000 
 H        6.0569980000    -2.7920100000    -0.4840400000 
 H        5.5301450000    -4.4645550000    -0.2232950000 
 H        6.6763940000    -3.7054070000     0.9041270000 
*
