! RI PBE def2-SVP def2-SVP/J NBO PAL2
% maxcore 2000
% output
    # printlevel mini
    print[ P_Basis ] 0
    print[ P_SCFInfo ] 1
    print[ P_SCFIterInfo ] 1
    print[ P_OrbEn ] 0
    print[ P_Cartesian ] 0
end
*xyz 0 1
 C        1.3932370000     0.7162380000    -0.9468050000 
 C        2.7874490000     0.2993650000    -0.5553710000 
 O        3.0637880000     0.8265450000     0.7320490000 
 C        4.2224240000     0.3695140000     1.3208230000 
 O        5.3974760000     0.9780190000     0.8212900000 
 N        5.9415800000     0.2372700000    -0.2018710000 
 C        6.9660140000     0.7898930000    -0.6952780000 
 H        1.1488740000     0.3305540000    -1.9390570000 
 H        1.3106870000     1.8045360000    -0.9713140000 
 H        0.6593610000     0.3329710000    -0.2351780000 
 H        3.5213740000     0.6687360000    -1.2799400000 
 H        2.8789280000    -0.7953740000    -0.5274380000 
 H        4.3315130000    -0.7170870000     1.2141220000 
 H        4.1768690000     0.6661140000     2.3691200000 
 H        7.4593220000     0.2611660000    -1.5017100000 
 H        7.3488040000     1.7454290000    -0.3404430000 
*
