! RI PBE def2-SVP def2-SVP/J NBO PAL2
% maxcore 2000
% output
    # printlevel mini
    print[ P_Basis ] 0
    print[ P_SCFInfo ] 1
    print[ P_SCFIterInfo ] 1
    print[ P_OrbEn ] 0
    print[ P_Cartesian ] 0
end
*xyz 0 1
 C        3.0728260000     1.6681530000    -0.0041020000 
 C        2.4997210000     0.3307130000     0.3962280000 
 O        1.4074650000    -0.0661290000     0.0327020000 
 N        3.2892230000    -0.4125390000     1.1974870000 
 C        4.6041830000    -0.2373750000     1.7932110000 
 C        4.4423940000    -1.6324420000     2.4376890000 
 C        3.0544430000    -1.7284060000     1.7630790000 
 H        2.3552880000     2.1753780000    -0.6445940000 
 H        4.0158330000     1.5444070000    -0.5430050000 
 H        3.2748130000     2.2862320000     0.8746300000 
 H        4.6709310000     0.5978330000     2.4977970000 
 H        5.4187680000    -0.1496980000     1.0671150000 
 H        4.4194570000    -1.6273540000     3.5258190000 
 H        5.1644770000    -2.3728700000     2.0986470000 
 H        2.1964720000    -1.7675650000     2.4392220000 
 H        2.9418170000    -2.5142290000     1.0116840000 
*
