! RI PBE def2-SVP def2-SVP/J NBO PAL2
% maxcore 2000
% output
    # printlevel mini
    print[ P_Basis ] 0
    print[ P_SCFInfo ] 1
    print[ P_SCFIterInfo ] 1
    print[ P_OrbEn ] 0
    print[ P_Cartesian ] 0
end
*xyz 0 1
 C        3.2731070000    -0.8048290000    -1.4087400000 
 C        2.5633580000    -0.0870160000    -0.2909690000 
 O        1.3531200000    -0.0321740000    -0.2117980000 
 N        3.3566760000     0.5068050000     0.6489950000 
 C        4.7707300000     0.6508250000     0.5934750000 
 C        5.5181660000     0.6541390000     1.8880470000 
 C        5.6519770000    -0.5083680000     0.9564660000 
 H        2.5232570000    -1.2427310000    -2.0628410000 
 H        3.9300940000    -1.5862120000    -1.0219090000 
 H        3.8964880000    -0.1127770000    -1.9807030000 
 H        2.8459670000     1.0601240000     1.3202880000 
 H        5.1491640000     1.3191540000    -0.1769160000 
 H        4.9390870000     0.5025100000     2.7906640000 
 H        6.3483290000     1.3406970000     1.9907520000 
 H        5.1568290000    -1.4282910000     1.2398770000 
 H        6.5775390000    -0.6330530000     0.4088020000 
*
