! RI PBE def2-SVP def2-SVP/J NBO PAL2
% maxcore 2000
% output
    # printlevel mini
    print[ P_Basis ] 0
    print[ P_SCFInfo ] 1
    print[ P_SCFIterInfo ] 1
    print[ P_OrbEn ] 0
    print[ P_Cartesian ] 0
end
*xyz 0 1
 C        0.5951850000    -0.6159170000     2.1242780000 
 C        1.5949050000     0.5101930000     1.9392640000 
 O        1.3913260000     1.1645620000     0.6790730000 
 N        1.7989360000     0.3514780000    -0.3441520000 
 C        1.6096240000     0.8776220000    -1.4786270000 
 C        1.4474980000     1.5716620000     2.9789140000 
 C        2.3532260000     1.8323190000     3.9084570000 
 H        0.6930600000    -1.3391820000     1.3131680000 
 H       -0.4252100000    -0.2248520000     2.1253070000 
 H        0.7727120000    -1.1251790000     3.0734980000 
 H        2.6155230000     0.1138650000     1.9541110000 
 H        1.9204280000     0.2980860000    -2.3392680000 
 H        1.1626710000     1.8627870000    -1.6045510000 
 H        0.5105470000     2.1242430000     2.9554130000 
 H        3.2961090000     1.2955610000     3.9465790000 
 H        2.1860600000     2.5873420000     4.6677330000 
*
