! RI PBE def2-SVP def2-SVP/J NBO PAL2
% maxcore 2000
% output
    # printlevel mini
    print[ P_Basis ] 0
    print[ P_SCFInfo ] 1
    print[ P_SCFIterInfo ] 1
    print[ P_OrbEn ] 0
    print[ P_Cartesian ] 0
end
*xyz 0 1
 C        1.1059770000    -0.2246310000    -0.1170210000 
 C        2.5865620000     0.0484200000     0.0816700000 
 O        2.8779000000     1.4445510000    -0.0442890000 
 N        2.8695710000     1.7875780000    -1.3729790000 
 C        3.0666600000     3.0243470000    -1.5459250000 
 C        3.0518190000    -0.3657900000     1.3984970000 
 C        3.4098970000    -0.7384830000     2.4806270000 
 H        0.8072640000     0.1102970000    -1.1112260000 
 H        0.5210390000     0.3074330000     0.6346030000 
 H        0.9041470000    -1.2932950000    -0.0272730000 
 H        3.1668560000    -0.4805720000    -0.6829480000 
 H        3.0881100000     3.3712680000    -2.5717490000 
 H        3.2127600000     3.7194210000    -0.7205810000 
 H        3.7342370000    -1.0630440000     3.4410830000 
*
