! RI PBE def2-SVP def2-SVP/J NBO PAL2
% maxcore 2000
% output
    # printlevel mini
    print[ P_Basis ] 0
    print[ P_SCFInfo ] 1
    print[ P_SCFIterInfo ] 1
    print[ P_OrbEn ] 0
    print[ P_Cartesian ] 0
end
*xyz 0 1
 C        1.0736610000     3.9354890000     0.3388120000 
 C        1.6817780000     2.9421340000    -0.6236070000 
 O        3.0955690000     2.8777140000    -0.5226550000 
 N        3.6491590000     3.9971700000    -1.1152120000 
 C        4.9177560000     4.0188260000    -1.0035780000 
 C        5.7039860000     2.9616960000    -0.2976770000 
 C        5.6266770000     5.1729980000    -1.6267320000 
 H       -0.0158460000     3.9288030000     0.2501170000 
 H        1.4303110000     4.9435950000     0.1213470000 
 H        1.3362510000     3.6871790000     1.3696030000 
 H        1.4092780000     3.1794220000    -1.6569790000 
 H        1.3473010000     1.9254490000    -0.4030370000 
 H        5.3582250000     2.8530680000     0.7331800000 
 H        6.7682130000     3.1967030000    -0.2965150000 
 H        5.5536520000     1.9909010000    -0.7772090000 
 H        6.1985500000     5.7246360000    -0.8737060000 
 H        4.9159750000     5.8487250000    -2.1008980000 
 H        6.3431050000     4.8237830000    -2.3772760000 
*
