! RI PBE def2-SVP def2-SVP/J NBO PAL2
% maxcore 2000
% output
    # printlevel mini
    print[ P_Basis ] 0
    print[ P_SCFInfo ] 1
    print[ P_SCFIterInfo ] 1
    print[ P_OrbEn ] 0
    print[ P_Cartesian ] 0
end
*xyz 0 1
 C        0.9549950000     0.0849630000    -0.4780020000 
 C        2.4118460000    -0.2914500000    -0.5410130000 
 O        3.0754230000     0.3894600000     0.5165540000 
 N        4.4066620000     0.0821120000     0.5060350000 
 C        5.0391870000     0.6744170000     1.4416720000 
 C        6.4611820000     0.4662390000     1.5831420000 
 C        7.1922380000     1.0476880000     2.5330130000 
 H        0.4079030000    -0.4192790000    -1.2771460000 
 H        0.8243490000     1.1620200000    -0.5992700000 
 H        0.5164190000    -0.2099750000     0.4772420000 
 H        2.8616650000     0.0032010000    -1.4949360000 
 H        2.5534310000    -1.3702250000    -0.4172450000 
 H        4.5170420000     1.3362830000     2.1353980000 
 H        6.9166630000    -0.2035950000     0.8600730000 
 H        6.7452200000     1.7183890000     3.2596300000 
 H        8.2575550000     0.8721620000     2.6141450000 
*
