! RI PBE def2-SVP def2-SVP/J NBO PAL2
% maxcore 2000
% output
    # printlevel mini
    print[ P_Basis ] 0
    print[ P_SCFInfo ] 1
    print[ P_SCFIterInfo ] 1
    print[ P_OrbEn ] 0
    print[ P_Cartesian ] 0
end
*xyz 0 1
 C        0.8612050000    -0.1470010000     0.1667750000 
 C        2.3139220000    -0.3511230000    -0.1682150000 
 O        2.6840480000    -1.1316650000    -1.0183680000 
 N        3.1919370000     0.4058730000     0.5534960000 
 C        4.6108010000     0.2609360000     0.3756770000 
 C        5.2881490000    -0.1446110000     1.6052140000 
 N        5.8150080000    -0.4348350000     2.5843400000 
 H        0.3143930000     0.0399480000    -0.7575060000 
 H        0.6822690000     0.6702040000     0.8665020000 
 H        0.4748740000    -1.0733950000     0.5957880000 
 H        2.8492310000     1.0128060000     1.2771370000 
 H        5.0727940000     1.1856970000     0.0149830000 
 H        4.7510580000    -0.5061130000    -0.3914120000 
*
