! RI PBE def2-SVP def2-SVP/J NBO PAL2
% maxcore 2000
% output
    # printlevel mini
    print[ P_Basis ] 0
    print[ P_SCFInfo ] 1
    print[ P_SCFIterInfo ] 1
    print[ P_OrbEn ] 0
    print[ P_Cartesian ] 0
end
*xyz 0 1
 C        0.3048910000     0.0309660000    -0.6960020000 
 C        1.7934120000     0.1955340000    -0.5533360000 
 O        2.1861030000    -0.4942680000     0.6391030000 
 N        3.5142680000    -0.3861590000     0.8277360000 
 C        3.8963070000    -0.9915040000     1.8836970000 
 C        5.2774140000    -0.9695850000     2.2208030000 
 N        6.3818240000    -0.9875670000     2.5460140000 
 H       -0.0337180000     0.5464180000    -1.5966520000 
 H       -0.2206110000     0.4571230000     0.1604260000 
 H        0.0330250000    -1.0225740000    -0.7816490000 
 H        2.0793560000     1.2466310000    -0.4585310000 
 H        2.3336730000    -0.2363810000    -1.4001650000 
 H        3.2070560000    -1.5243430000     2.5367650000 
*
