! RI PBE def2-SVP def2-SVP/J NBO PAL2
% maxcore 2000
% output
    # printlevel mini
    print[ P_Basis ] 0
    print[ P_SCFInfo ] 1
    print[ P_SCFIterInfo ] 1
    print[ P_OrbEn ] 0
    print[ P_Cartesian ] 0
end
*xyz 0 1
 C        7.1547720000     2.5046080000     1.9957800000 
 C        6.8643600000     1.1439590000     2.5730460000 
 O        7.3664170000     0.1761210000     1.6548380000 
 N        7.1262040000    -1.1069760000     2.1335080000 
 C        6.1208400000    -1.7791790000     1.3452430000 
 C        8.2815910000    -1.7885870000     2.4754430000 
 N        9.4527420000    -1.3362590000     2.6180320000 
 H        6.7811210000     3.2793350000     2.6681940000 
 H        6.6702540000     2.6276700000     1.0254130000 
 H        8.2285000000     2.6526900000     1.8659200000 
 H        5.7867850000     0.9932290000     2.7080920000 
 H        7.3501930000     1.0081950000     3.5452150000 
 H        5.1675800000    -1.2581540000     1.4438210000 
 H        5.9990960000    -2.7923570000     1.7309490000 
 H        6.3949580000    -1.8280260000     0.2851020000 
 H        8.0731380000    -2.8393070000     2.6875560000 
 H        9.4804590000    -0.3514620000     2.3527280000 
*
