! RI PBE def2-SVP def2-SVP/J NBO PAL2
% maxcore 2000
% output
    # printlevel mini
    print[ P_Basis ] 0
    print[ P_SCFInfo ] 1
    print[ P_SCFIterInfo ] 1
    print[ P_OrbEn ] 0
    print[ P_Cartesian ] 0
end
*xyz 0 1
 C        0.8811690000    -1.2591140000    -2.9936660000 
 C        2.2468300000    -1.5958370000    -2.4548770000 
 O        2.9998890000    -0.3866650000    -2.4210000000 
 N        4.2844740000    -0.6399130000    -1.9610700000 
 C        5.2973150000    -0.3506830000    -2.8786330000 
 C        6.6532560000    -0.3269170000    -2.2441660000 
 N        5.1433820000    -0.1833870000    -4.1238960000 
 H        0.2641920000    -2.1592360000    -3.0271570000 
 H        0.9486450000    -0.8520300000    -4.0043270000 
 H        0.3827350000    -0.5240200000    -2.3589560000 
 H        2.7611140000    -2.3258620000    -3.0892640000 
 H        2.1832890000    -2.0120550000    -1.4427540000 
 H        4.4055240000    -0.1940950000    -1.0590110000 
 H        6.8428260000    -1.2470340000    -1.6864920000 
 H        6.7427220000     0.5118720000    -1.5470150000 
 H        7.4009990000    -0.2140290000    -3.0254110000 
 H        4.1500510000    -0.1991960000    -4.3543150000 
*
