! RI PBE def2-SVP def2-SVP/J NBO PAL2
% maxcore 2000
% output
    # printlevel mini
    print[ P_Basis ] 0
    print[ P_SCFInfo ] 1
    print[ P_SCFIterInfo ] 1
    print[ P_OrbEn ] 0
    print[ P_Cartesian ] 0
end
*xyz 0 1
 C        0.3906560000    -0.0422020000    -0.1618670000 
 C        1.8015690000    -0.2878390000     0.3123810000 
 O        2.0403710000    -0.8934660000     1.3381940000 
 N        2.7862260000     0.2138840000    -0.4781690000 
 C        4.1823440000     0.1320690000    -0.1061600000 
 C        4.8309920000    -1.1654730000    -0.5535790000 
 O        4.7933280000    -1.3297740000    -1.9552590000 
 H       -0.1332070000    -0.9974430000    -0.2094230000 
 H        0.3314230000     0.4499790000    -1.1338970000 
 H       -0.1209280000     0.5734490000     0.5800840000 
 H        2.5303640000     0.7582400000    -1.2818630000 
 H        4.2553640000     0.2171950000     0.9812150000 
 H        4.7042700000     0.9769790000    -0.5610650000 
 H        4.3527020000    -2.0070130000    -0.0393740000 
 H        5.8862130000    -1.1543600000    -0.2701730000 
 H        3.8831240000    -1.5127160000    -2.2017260000 
*
