! RI PBE def2-SVP def2-SVP/J NBO PAL2
% maxcore 2000
% output
    # printlevel mini
    print[ P_Basis ] 0
    print[ P_SCFInfo ] 1
    print[ P_SCFIterInfo ] 1
    print[ P_OrbEn ] 0
    print[ P_Cartesian ] 0
end
*xyz 0 1
 C        3.3850250000     1.1946730000     1.1966380000 
 C        2.6149790000     0.2768670000     0.3046040000 
 O        1.4087470000     0.2363050000     0.2657620000 
 N        3.3207730000    -0.5884110000    -0.5370420000 
 C        4.6819630000    -0.7608810000    -0.7053790000 
 C        5.0550240000    -1.8082250000    -1.7238950000 
 O        5.5152600000    -0.1349550000    -0.0971910000 
 H        2.6688730000     1.7813900000     1.7674600000 
 H        4.0395430000     1.8421990000     0.6115810000 
 H        4.0401440000     0.6283320000     1.8600030000 
 H        2.7020130000    -1.1600860000    -1.0925870000 
 H        4.2020730000    -2.2949710000    -2.1967910000 
 H        5.6714740000    -2.5615150000    -1.2308490000 
 H        5.6709210000    -1.3362430000    -2.4910040000 
*
