! RI PBE def2-SVP def2-SVP/J NBO PAL2
% maxcore 2000
% output
    # printlevel mini
    print[ P_Basis ] 0
    print[ P_SCFInfo ] 1
    print[ P_SCFIterInfo ] 1
    print[ P_OrbEn ] 0
    print[ P_Cartesian ] 0
end
*xyz 0 1
 C        1.1121070000     0.4977650000     0.1638950000 
 C        2.5993660000     0.3596820000     0.3711990000 
 O        3.1851770000     0.8197380000     1.3315960000 
 N        3.2541740000    -0.3226520000    -0.6010520000 
 C        4.6629710000    -0.5345270000    -0.5445850000 
 C        5.1336320000    -1.3102390000    -1.7331270000 
 O        4.4079720000    -1.6957510000    -2.6100230000 
 H        0.6929050000     1.0581550000     0.9959170000 
 H        0.6357260000    -0.4843160000     0.1121250000 
 H        0.8985180000     1.0226090000    -0.7704640000 
 H        2.7736020000    -0.7059640000    -1.4002220000 
 H        4.9642590000    -1.0775630000     0.3627130000 
 H        5.2228920000     0.4109080000    -0.5062070000 
 H        6.2226180000    -1.5132650000    -1.7573660000 
*
