! RI PBE def2-SVP def2-SVP/J NBO PAL2
% maxcore 2000
% output
    # printlevel mini
    print[ P_Basis ] 0
    print[ P_SCFInfo ] 1
    print[ P_SCFIterInfo ] 1
    print[ P_OrbEn ] 0
    print[ P_Cartesian ] 0
end
*xyz 0 1
 C        0.5885310000     0.0938660000    -2.1364110000 
 C        1.8472560000    -0.5148720000    -1.5555300000 
 O        1.8746510000    -0.1846890000    -0.1767870000 
 N        3.0310120000    -0.6795970000     0.3848900000 
 C        3.1423720000    -0.3643350000     1.6034450000 
 C        1.8367190000    -2.0179060000    -1.7493130000 
 O        2.0818420000    -2.5457910000    -2.7961370000 
 H        0.5976030000     1.1759240000    -1.9984210000 
 H       -0.3006020000    -0.3109040000    -1.6477540000 
 H        0.5368480000    -0.1297330000    -3.2022480000 
 H        2.7365190000    -0.1137640000    -2.0531180000 
 H        4.0267680000    -0.7218740000     2.1163730000 
 H        2.3990320000     0.2346560000     2.1273900000 
 H        1.5457480000    -2.6003610000    -0.8489990000 
*
