! RI PBE def2-SVP def2-SVP/J NBO PAL2
% maxcore 2000
% output
    # printlevel mini
    print[ P_Basis ] 0
    print[ P_SCFInfo ] 1
    print[ P_SCFIterInfo ] 1
    print[ P_OrbEn ] 0
    print[ P_Cartesian ] 0
end
*xyz 0 1
 C        0.0368020000     1.2224280000     0.4996670000 
 C        1.0610090000     0.1905710000     0.1060620000 
 O        1.9614690000     0.8084630000    -0.8038810000 
 N        2.9248420000    -0.0874680000    -1.1869530000 
 C        3.7563070000     0.4146250000    -2.0017210000 
 C        4.8604090000    -0.4380560000    -2.5271150000 
 O        4.7965070000    -0.5697780000    -3.9338770000 
 H       -0.6767220000     0.7862930000     1.2016070000 
 H       -0.5139900000     1.5787620000    -0.3729160000 
 H        0.5117000000     2.0795770000     0.9807820000 
 H        0.5928280000    -0.6725780000    -0.3791970000 
 H        1.6196170000    -0.1708590000     0.9758270000 
 H        3.6627800000     1.4456760000    -2.3477680000 
 H        4.8360030000    -1.4077050000    -2.0173290000 
 H        5.8260120000     0.0314950000    -2.3204500000 
 H        3.9668280000    -1.0034570000    -4.1518180000 
*
