! RI PBE def2-SVP def2-SVP/J NBO PAL2
% maxcore 2000
% output
    # printlevel mini
    print[ P_Basis ] 0
    print[ P_SCFInfo ] 1
    print[ P_SCFIterInfo ] 1
    print[ P_OrbEn ] 0
    print[ P_Cartesian ] 0
end
*xyz 0 1
 C        0.7090040000    -0.0078860000     0.0010250000 
 C        2.2130410000     0.0002810000     0.0442380000 
 O        2.6776100000    -0.7099200000    -1.1080380000 
 N        4.0223220000    -0.7419310000    -1.1341920000 
 C        4.4893340000    -1.3650530000    -2.1439700000 
 C        5.9499040000    -1.4440110000    -2.2447090000 
 O        6.5198850000    -2.0026070000    -3.1471190000 
 H        0.3151070000     0.5266800000     0.8675150000 
 H        0.3221850000    -1.0282540000     0.0228290000 
 H        0.3405290000     0.4832570000    -0.9013390000 
 H        2.5962790000    -0.4969590000     0.9398420000 
 H        2.6146680000     1.0171420000     0.0140430000 
 H        3.8617800000    -1.8241000000    -2.9067390000 
 H        6.4927510000    -0.9450510000    -1.4184860000 
*
