! RI PBE def2-SVP def2-SVP/J NBO PAL2
% maxcore 2000
% output
    # printlevel mini
    print[ P_Basis ] 0
    print[ P_SCFInfo ] 1
    print[ P_SCFIterInfo ] 1
    print[ P_OrbEn ] 0
    print[ P_Cartesian ] 0
end
*xyz 0 1
 C        0.8859380000    -0.3092510000     0.1569310000 
 C        2.2931500000     0.1249460000    -0.1562490000 
 O        3.1703660000    -0.8809810000     0.3515070000 
 N        4.4908890000    -0.5373480000     0.1481310000 
 C        5.1489810000     0.1037510000     1.2519020000 
 C        5.1473940000    -1.2367070000    -0.8116670000 
 O        6.3422600000    -1.2032380000    -0.9910300000 
 H        0.1775770000     0.4307510000    -0.2204050000 
 H        0.7397660000    -0.4084580000     1.2339290000 
 H        0.6627380000    -1.2693150000    -0.3118480000 
 H        2.5254080000     1.0861730000     0.3165830000 
 H        2.4512360000     0.2287210000    -1.2354680000 
 H        4.7296260000     1.0954660000     1.4333610000 
 H        6.1997690000     0.1997830000     0.9817170000 
 H        5.0576130000    -0.4996360000     2.1596300000 
 H        4.4419890000    -1.8240470000    -1.4252330000 
*
