! RI PBE def2-SVP def2-SVP/J NBO PAL2
% maxcore 2000
% output
    # printlevel mini
    print[ P_Basis ] 0
    print[ P_SCFInfo ] 1
    print[ P_SCFIterInfo ] 1
    print[ P_OrbEn ] 0
    print[ P_Cartesian ] 0
end
*xyz 0 1
 C        1.0083810000     1.5638420000    -0.9461560000 
 C        2.2191190000     2.0456490000    -0.1883770000 
 O        3.2350860000     2.3110990000    -1.1313110000 
 N        4.3724950000     2.7597390000    -0.4545270000 
 C        5.3057650000     3.0076570000    -1.2889950000 
 N        6.5170060000     3.4581700000    -0.8854110000 
 C        6.8208780000     3.6820870000     0.5001840000 
 H        0.1950440000     1.3461410000    -0.2505210000 
 H        1.2352060000     0.6534480000    -1.5048910000 
 H        0.6629240000     2.3223630000    -1.6516780000 
 H        2.5682920000     1.2885550000     0.5247690000 
 H        1.9956510000     2.9583740000     0.3779370000 
 H        5.1707430000     2.8687520000    -2.3615140000 
 H        7.2106540000     3.6358380000    -1.5836600000 
 H        6.1439640000     4.4232940000     0.9368140000 
 H        7.8456560000     4.0412820000     0.5887950000 
 H        6.7145270000     2.7600110000     1.0804520000 
*
