! RI PBE def2-SVP def2-SVP/J NBO PAL2
% maxcore 2000
% output
    # printlevel mini
    print[ P_Basis ] 0
    print[ P_SCFInfo ] 1
    print[ P_SCFIterInfo ] 1
    print[ P_OrbEn ] 0
    print[ P_Cartesian ] 0
end
*xyz 0 1
 C        2.6856130000    -1.3367170000    -0.8009040000 
 C        2.0321910000    -0.1182410000    -0.2125910000 
 O        0.8349550000    -0.0135610000    -0.0378130000 
 N        2.8603990000     0.9066580000     0.1341190000 
 N        4.2321010000     0.8639400000    -0.0481430000 
 C        4.8610680000     2.1213680000    -0.4095950000 
 C        5.0231160000     1.5558460000     0.9527560000 
 H        1.9066480000    -2.0646940000    -1.0146120000 
 H        3.4162590000    -1.7578780000    -0.1083570000 
 H        3.2247050000    -1.0829820000    -1.7152980000 
 H        2.4208610000     1.7334280000     0.5230170000 
 H        4.2126510000     2.9862890000    -0.5125790000 
 H        5.6601850000     2.0535090000    -1.1389740000 
 H        4.4828330000     2.0436220000     1.7585420000 
 H        5.9439040000     1.0641240000     1.2452510000 
*
