! RI PBE def2-SVP def2-SVP/J NBO PAL2
% maxcore 2000
% output
    # printlevel mini
    print[ P_Basis ] 0
    print[ P_SCFInfo ] 1
    print[ P_SCFIterInfo ] 1
    print[ P_OrbEn ] 0
    print[ P_Cartesian ] 0
end
*xyz 0 1
 C        3.3293760000    -0.2141800000     1.3208530000 
 C        2.5821820000    -0.2878350000     0.0156470000 
 O        1.3854390000    -0.4861510000    -0.0331020000 
 N        3.3016400000    -0.1208990000    -1.1489050000 
 N        2.6114870000    -0.1883710000    -2.3603590000 
 C        4.6719710000     0.1115200000    -1.2161560000 
 C        5.3743360000     0.2736860000    -2.3320200000 
 H        2.6052330000    -0.3669220000     2.1173670000 
 H        3.8098910000     0.7574860000     1.4545700000 
 H        4.1015450000    -0.9838840000     1.3857990000 
 H        1.8710500000     0.5061490000    -2.3308040000 
 H        2.1379570000    -1.0862050000    -2.3941540000 
 H        5.1525910000     0.1535700000    -0.2484860000 
 H        4.9068210000     0.2340580000    -3.3055120000 
 H        6.4387610000     0.4493890000    -2.2633280000 
*
