! RI PBE def2-SVP def2-SVP/J NBO PAL2
% maxcore 2000
% output
    # printlevel mini
    print[ P_Basis ] 0
    print[ P_SCFInfo ] 1
    print[ P_SCFIterInfo ] 1
    print[ P_OrbEn ] 0
    print[ P_Cartesian ] 0
end
*xyz 0 1
 C        3.2233210000    -1.3062800000    -0.0845450000 
 C        2.5432660000     0.0254870000     0.0216290000 
 O        1.3266980000     0.1656700000     0.0367900000 
 N        3.3160650000     1.1408600000     0.1058100000 
 O        2.6148090000     2.3155850000     0.1997400000 
 C        4.6895040000     1.2501080000     0.1095770000 
 C        5.3596290000     2.3947150000     0.1963510000 
 H        2.4463890000    -2.0649700000    -0.1407820000 
 H        3.8532740000    -1.5041960000     0.7851160000 
 H        3.8468250000    -1.3668280000    -0.9789180000 
 H        1.6952180000     1.9685910000     0.1756930000 
 H        5.1890910000     0.2940550000     0.0331640000 
 H        4.8538440000     3.3465350000     0.2722450000 
 H        6.4399480000     2.3760790000     0.1909210000 
*
