! RI PBE def2-SVP def2-SVP/J NBO PAL2
% maxcore 2000
% output
    # printlevel mini
    print[ P_Basis ] 0
    print[ P_SCFInfo ] 1
    print[ P_SCFIterInfo ] 1
    print[ P_OrbEn ] 0
    print[ P_Cartesian ] 0
end
*xyz 0 1
 C        1.0899100000    -0.1515690000     0.0099720000 
 N        2.5289820000    -0.1339750000    -0.1202830000 
 C        3.0636570000    -0.5044150000    -1.4107840000 
 C        3.0847090000     0.9076350000    -0.9575650000 
 C        4.3311100000     1.5591120000    -0.4918810000 
 C        4.8870460000     2.7206130000    -1.1776840000 
 O        4.2010000000     2.8651120000     0.0538810000 
 H        0.7629950000    -1.1593770000     0.2757730000 
 H        0.5697090000     0.1488330000    -0.9136960000 
 H        0.7913260000     0.5282610000     0.8105080000 
 H        2.3619870000    -0.7541040000    -2.2038660000 
 H        3.9719510000    -1.0987370000    -1.3970560000 
 H        2.3774810000     1.5811330000    -1.4413220000 
 H        5.0050440000     0.9071400000     0.0615810000 
 H        4.3709510000     3.1236950000    -2.0466000000 
 H        5.9578320000     2.9058520000    -1.1423970000 
*
