! RI PBE def2-SVP def2-SVP/J NBO PAL2
% maxcore 2000
% output
    # printlevel mini
    print[ P_Basis ] 0
    print[ P_SCFInfo ] 1
    print[ P_SCFIterInfo ] 1
    print[ P_OrbEn ] 0
    print[ P_Cartesian ] 0
end
*xyz 0 1
 C        0.6927780000    -0.0280550000    -0.3656130000 
 N        2.0719990000     0.1101000000     0.0452920000 
 C        3.0586210000    -0.6947570000    -0.6480030000 
 C        3.0402760000     0.7771250000    -0.8228700000 
 C        2.6327230000     1.3911320000    -2.1344930000 
 C        3.9998060000     1.6100480000    -0.0062040000 
 O        3.3542520000     2.7290400000     0.5582520000 
 H        0.2203820000    -0.7920680000     0.2562170000 
 H        0.5577260000    -0.3208550000    -1.4157090000 
 H        0.1629240000     0.9132610000    -0.2014850000 
 H        2.7099900000    -1.2920240000    -1.4885750000 
 H        3.8127400000    -1.1746170000    -0.0307350000 
 H        1.8899920000     0.7968450000    -2.6661690000 
 H        3.5058220000     1.4857190000    -2.7851020000 
 H        2.2284530000     2.3937530000    -1.9736410000 
 H        4.8050460000     1.9991270000    -0.6353540000 
 H        4.4489830000     0.9823680000     0.7741250000 
 H        2.6377080000     2.3740660000     1.0954580000 
*
