! RI PBE def2-SVP def2-SVP/J NBO PAL2
% maxcore 2000
% output
    # printlevel mini
    print[ P_Basis ] 0
    print[ P_SCFInfo ] 1
    print[ P_SCFIterInfo ] 1
    print[ P_OrbEn ] 0
    print[ P_Cartesian ] 0
end
*xyz 0 1
 C        1.7341950000    -0.2511490000     0.1809300000 
 N        2.9904010000    -0.0526310000    -0.5085630000 
 C        3.0145610000    -0.3702860000    -1.9076910000 
 C        3.0289700000     1.0508760000    -1.4487940000 
 C        4.2595010000     1.8920680000    -1.5328840000 
 C        5.5217530000     1.3519200000    -0.9256410000 
 O        4.2070250000     2.9707200000    -2.0747070000 
 H        1.6732740000    -1.2862380000     0.5234310000 
 H        0.8587210000    -0.0417250000    -0.4527330000 
 H        1.6933930000     0.4023940000     1.0544460000 
 H        2.0933300000    -0.7066800000    -2.3785940000 
 H        3.9213620000    -0.8325260000    -2.2834970000 
 H        2.1130800000     1.6121540000    -1.6225030000 
 H        5.7366300000     0.3418410000    -1.2816520000 
 H        5.3942850000     1.2708590000     0.1567620000 
 H        6.3492110000     2.0189020000    -1.1592110000 
*
