! RI PBE def2-SVP def2-SVP/J NBO PAL2
% maxcore 2000
% output
    # printlevel mini
    print[ P_Basis ] 0
    print[ P_SCFInfo ] 1
    print[ P_SCFIterInfo ] 1
    print[ P_OrbEn ] 0
    print[ P_Cartesian ] 0
end
*xyz 0 1
 C        0.8277460000     0.1447000000    -0.7533650000 
 N        2.1238060000     0.0351010000    -0.1232250000 
 C        2.9128660000    -1.1238100000    -0.4885020000 
 C        3.2732360000     0.2232440000    -0.9822640000 
 C        4.4218420000     0.9991610000    -0.4143200000 
 C        5.7217440000     0.8131230000    -1.1368670000 
 O        5.8701990000     0.1580560000    -2.1319140000 
 H        0.0931610000    -0.4165330000    -0.1712980000 
 H        0.8163610000    -0.2383390000    -1.7861020000 
 H        0.5183720000     1.1923630000    -0.7714320000 
 H        2.4915530000    -1.8197920000    -1.2098830000 
 H        3.4839450000    -1.5826160000     0.3126470000 
 H        3.0733320000     0.4007210000    -2.0373910000 
 H        4.5758050000     0.7443280000     0.6411580000 
 H        4.2088810000     2.0779330000    -0.4133600000 
 H        6.5838610000     1.3505600000    -0.6828720000 
*
