! RI PBE def2-SVP def2-SVP/J NBO PAL2
% maxcore 2000
% output
    # printlevel mini
    print[ P_Basis ] 0
    print[ P_SCFInfo ] 1
    print[ P_SCFIterInfo ] 1
    print[ P_OrbEn ] 0
    print[ P_Cartesian ] 0
end
*xyz 0 1
 C        1.5940190000    -0.3172360000     0.2169420000 
 N        2.8312820000    -0.1274910000    -0.5088280000 
 C        2.7937030000    -0.3632620000    -1.9315190000 
 C        2.8906910000     1.0193280000    -1.3913420000 
 C        4.1718040000     1.7944850000    -1.4681300000 
 N        5.2027480000     1.2230780000    -0.8091690000 
 O        4.2468230000     2.8272790000    -2.1014370000 
 H        1.5016820000    -1.3666350000     0.5045100000 
 H        0.7073400000    -0.0385370000    -0.3716470000 
 H        1.6103390000     0.2882080000     1.1253640000 
 H        1.8432320000    -0.6468110000    -2.3771300000 
 H        3.6708290000    -0.8335790000    -2.3627040000 
 H        2.0069040000     1.6431220000    -1.4937730000 
 H        5.0150210000     0.4384190000    -0.2066000000 
 H        6.0867830000     1.6988120000    -0.7838460000 
*
