! RI PBE def2-SVP def2-SVP/J NBO PAL2
% maxcore 2000
% output
    # printlevel mini
    print[ P_Basis ] 0
    print[ P_SCFInfo ] 1
    print[ P_SCFIterInfo ] 1
    print[ P_OrbEn ] 0
    print[ P_Cartesian ] 0
end
*xyz 0 1
 C        1.3044930000    -0.1612970000     0.0481370000 
 N        2.7323850000    -0.1482470000    -0.1865990000 
 C        3.1847370000    -0.7130560000    -1.4249150000 
 C        3.1789780000     0.7638610000    -1.2228120000 
 C        4.4285950000     1.5385380000    -1.0195750000 
 O        5.3437650000     0.8923560000    -0.2853870000 
 O        4.6153180000     2.6302700000    -1.4890590000 
 H        1.0321340000    -1.1094890000     0.5159900000 
 H        0.7135600000    -0.0451920000    -0.8736950000 
 H        1.0433510000     0.6471300000     0.7334440000 
 H        2.4422740000    -1.0995420000    -2.1200890000 
 H        4.1251370000    -1.2510220000    -1.3866380000 
 H        2.4268040000     1.3319030000    -1.7622620000 
 H        6.1100680000     1.4798870000    -0.2313400000 
*
