! RI PBE def2-SVP def2-SVP/J NBO PAL2
% maxcore 2000
% output
    # printlevel mini
    print[ P_Basis ] 0
    print[ P_SCFInfo ] 1
    print[ P_SCFIterInfo ] 1
    print[ P_OrbEn ] 0
    print[ P_Cartesian ] 0
end
*xyz 0 1
 C        1.3531420000     0.1781260000     0.8453580000 
 N        2.3022450000    -0.0890450000    -0.1952470000 
 C        2.2970310000    -1.4420100000    -0.7166080000 
 C        2.9896250000    -1.3192060000    -2.0451310000 
 O        4.1858970000    -0.5545260000    -2.0105640000 
 C        2.9859420000     0.0912720000    -2.4106250000 
 C        2.2910710000     0.8404190000    -1.3080490000 
 H        1.5028460000    -0.5181140000     1.6743970000 
 H        0.3019260000     0.0889640000     0.5118620000 
 H        1.4983860000     1.1900900000     1.2317540000 
 H        1.2785270000    -1.8348300000    -0.9015370000 
 H        2.7970860000    -2.1250990000    -0.0216280000 
 H        2.9594560000    -2.1302190000    -2.7654120000 
 H        2.9527190000     0.4502660000    -3.4340880000 
 H        1.2708940000     1.0890070000    -1.6591850000 
 H        2.7868960000     1.7774960000    -1.0328990000 
*
