! RI PBE def2-SVP def2-SVP/J NBO PAL2
% maxcore 2000
% output
    # printlevel mini
    print[ P_Basis ] 0
    print[ P_SCFInfo ] 1
    print[ P_SCFIterInfo ] 1
    print[ P_OrbEn ] 0
    print[ P_Cartesian ] 0
end
*xyz 0 1
 C        1.0581110000     0.1128180000    -0.1387220000 
 N        2.4748730000     0.0727220000     0.1032840000 
 C        3.2687760000    -1.0681410000     0.2298690000 
 C        4.5466500000    -0.7593610000     0.4509790000 
 C        4.6633900000     0.7306930000     0.4830160000 
 C        3.2377340000     1.2074650000     0.2429150000 
 O        2.8153020000     2.3388650000     0.1798410000 
 H        0.6775440000    -0.9052760000    -0.2114870000 
 H        0.8394390000     0.6433220000    -1.0683080000 
 H        0.5416740000     0.6301770000     0.6730660000 
 H        2.8082570000    -2.0423910000     0.1432220000 
 H        5.3541420000    -1.4616640000     0.5834600000 
 H        5.3175140000     1.1411870000    -0.2923380000 
 H        5.0214050000     1.1271740000     1.4381020000 
*
