! RI PBE def2-SVP def2-SVP/J NBO PAL2
% maxcore 2000
% output
    # printlevel mini
    print[ P_Basis ] 0
    print[ P_SCFInfo ] 1
    print[ P_SCFIterInfo ] 1
    print[ P_OrbEn ] 0
    print[ P_Cartesian ] 0
end
*xyz 0 1
 C        1.0534480000     0.0689790000     0.2001080000 
 N        2.4657320000     0.0346990000    -0.0592020000 
 C        3.2548150000    -1.1578960000    -0.1641110000 
 C        4.6249960000    -0.6284220000    -0.4352780000 
 C        4.5988390000     0.7001200000    -0.4760690000 
 C        3.2097150000     1.1684530000    -0.2355670000 
 O        2.7829400000     2.3037040000    -0.1958610000 
 H        0.6815480000    -0.9502780000     0.3047330000 
 H        0.5162290000     0.5587650000    -0.6164540000 
 H        0.8365160000     0.6200520000     1.1190750000 
 H        2.9089030000    -1.8115810000    -0.9771900000 
 H        3.2297600000    -1.7520950000     0.7602010000 
 H        5.4817110000    -1.2746510000    -0.5713080000 
 H        5.4186290000     1.3812410000    -0.6508680000 
*
