! RI PBE def2-SVP def2-SVP/J NBO PAL2
% maxcore 2000
% output
    # printlevel mini
    print[ P_Basis ] 0
    print[ P_SCFInfo ] 1
    print[ P_SCFIterInfo ] 1
    print[ P_OrbEn ] 0
    print[ P_Cartesian ] 0
end
*xyz 0 1
 C        1.1537100000    -0.0142440000     0.1033510000 
 N        2.5337480000     0.0322280000    -0.2794920000 
 C        3.3465290000     1.2103150000    -0.1008370000 
 C        4.6471960000     0.8557700000    -0.8268070000 
 C        4.6921050000    -0.6667690000    -0.7704670000 
 C        3.2417500000    -1.0828900000    -0.6108680000 
 O        2.7866280000    -2.1998150000    -0.7283330000 
 H        0.5636920000     0.7068860000    -0.4702770000 
 H        1.0276020000     0.2072650000     1.1695620000 
 H        0.7853020000    -1.0205070000    -0.0949520000 
 H        3.5144470000     1.4116730000     0.9672900000 
 H        2.8549040000     2.0906600000    -0.5256380000 
 H        5.5143490000     1.3366840000    -0.3742510000 
 H        4.5860820000     1.1889680000    -1.8651450000 
 H        5.2357860000    -1.0358250000     0.1052060000 
 H        5.1298700000    -1.1411070000    -1.6480610000 
*
