! RI PBE def2-SVP def2-SVP/J NBO PAL2
% maxcore 2000
% output
    # printlevel mini
    print[ P_Basis ] 0
    print[ P_SCFInfo ] 1
    print[ P_SCFIterInfo ] 1
    print[ P_OrbEn ] 0
    print[ P_Cartesian ] 0
end
*xyz 0 1
 C        1.0848900000     0.0131650000     0.0968230000 
 N        2.5162280000     0.0087340000     0.0283570000 
 C        3.2527440000     1.0602930000     0.7276810000 
 C        4.3039970000     0.0114880000     1.1597920000 
 C        4.7695880000     0.0338170000     2.5953070000 
 O        5.3972060000    -0.0845190000     0.2723610000 
 C        3.2494040000    -1.0299420000     0.7536960000 
 H        0.6890100000     0.8899660000    -0.4222040000 
 H        0.7008620000     0.0272040000     1.1347060000 
 H        0.6848380000    -0.8745990000    -0.3998140000 
 H        2.7076430000     1.4751740000     1.5908630000 
 H        3.6056960000     1.8803840000     0.0939040000 
 H        5.3904480000     0.9160250000     2.7861510000 
 H        5.3692170000    -0.8540670000     2.8096850000 
 H        3.9281130000     0.0636200000     3.2898730000 
 H        5.9795850000     0.6642040000     0.4302590000 
 H        2.7039360000    -1.4210730000     1.6267330000 
 H        3.6092730000    -1.8610040000     0.1417380000 
*
