! RI PBE def2-SVP def2-SVP/J NBO PAL2
% maxcore 2000
% output
    # printlevel mini
    print[ P_Basis ] 0
    print[ P_SCFInfo ] 1
    print[ P_SCFIterInfo ] 1
    print[ P_OrbEn ] 0
    print[ P_Cartesian ] 0
end
*xyz 0 1
 C        1.0328520000    -0.0472050000     0.0018080000 
 N        2.4506530000    -0.0794310000     0.2342630000 
 C        2.9555620000     1.0288500000     1.0294930000 
 C        4.3841760000     0.6164990000     1.3386240000 
 C        4.2968770000    -0.8969150000     1.4059310000 
 O        5.1322360000    -1.6482480000     1.8241390000 
 C        2.9345480000    -1.2858860000     0.8640730000 
 H        0.7600230000     0.8867990000    -0.4952060000 
 H        0.4465320000    -0.1235080000     0.9358430000 
 H        0.7400230000    -0.8732090000    -0.6501380000 
 H        2.3835600000     1.1518260000     1.9687600000 
 H        2.8773210000     1.9636690000     0.4701020000 
 H        4.8005310000     1.0274480000     2.2582060000 
 H        5.0588900000     0.8719140000     0.5154470000 
 H        2.3169520000    -1.6032830000     1.7292610000 
 H        2.9987740000    -2.1317000000     0.1756950000 
*
