! RI PBE def2-SVP def2-SVP/J NBO PAL2
% maxcore 2000
% output
    # printlevel mini
    print[ P_Basis ] 0
    print[ P_SCFInfo ] 1
    print[ P_SCFIterInfo ] 1
    print[ P_OrbEn ] 0
    print[ P_Cartesian ] 0
end
*xyz 0 1
 C        1.1138510000    -0.0969260000    -0.1317660000 
 N        2.5008700000    -0.1443970000     0.2438090000 
 C        2.9801130000     1.0481610000     0.9272630000 
 C        4.2998510000     0.6077810000     1.5789360000 
 C        4.3335540000    -0.9192120000     1.3817840000 
 O        5.1306650000    -1.2962960000     0.2791100000 
 C        2.8708760000    -1.2391170000     1.1203840000 
 H        0.9387920000     0.7402810000    -0.8118430000 
 H        0.4438730000     0.0256510000     0.7385350000 
 H        0.8337960000    -1.0164840000    -0.6503880000 
 H        2.2599020000     1.3706770000     1.7007610000 
 H        3.0924880000     1.8752560000     0.2216950000 
 H        4.3221960000     0.8723820000     2.6376660000 
 H        5.1781990000     1.0508580000     1.1085100000 
 H        4.7406540000    -1.4464300000     2.2453620000 
 H        4.6737220000    -0.9617410000    -0.5019690000 
 H        2.2904420000    -1.2335590000     2.0634750000 
 H        2.7363670000    -2.2076950000     0.6338650000 
*
