! RI PBE def2-SVP def2-SVP/J NBO PAL2
% maxcore 2000
% output
    # printlevel mini
    print[ P_Basis ] 0
    print[ P_SCFInfo ] 1
    print[ P_SCFIterInfo ] 1
    print[ P_OrbEn ] 0
    print[ P_Cartesian ] 0
end
*xyz 0 1
 C        0.9452660000     0.0973130000    -0.0550690000 
 N        2.3753980000     0.0116960000    -0.0516430000 
 N        3.1846330000     1.1124000000    -0.0476550000 
 C        4.5332870000     0.7588870000    -0.0439340000 
 O        5.4471360000     1.5651560000    -0.0401000000 
 C        4.4872660000    -0.6887480000    -0.0459910000 
 C        3.1791460000    -1.0670210000    -0.0504700000 
 H        0.6535480000     1.1469540000    -0.0571600000 
 H        0.5160740000    -0.3690100000     0.8360400000 
 H        0.5205700000    -0.3711980000    -0.9471440000 
 H        2.8060930000     2.0422240000    -0.0474230000 
 H        5.3505260000    -1.3314140000    -0.0442370000 
 H        2.7391550000    -2.0536290000    -0.0530430000 
*
