! RI PBE def2-SVP def2-SVP/J NBO PAL2
% maxcore 2000
% output
    # printlevel mini
    print[ P_Basis ] 0
    print[ P_SCFInfo ] 1
    print[ P_SCFIterInfo ] 1
    print[ P_OrbEn ] 0
    print[ P_Cartesian ] 0
end
*xyz 0 1
 C        0.9630400000    -0.0452350000     0.0139680000 
 N        2.4088990000    -0.0406680000     0.0302520000 
 C        2.9478760000     1.1023440000     0.7725760000 
 C        4.3103100000     0.6236800000     1.2320970000 
 C        4.1118030000    -0.8740860000     1.3603760000 
 O        4.8638390000    -1.6893180000     1.8363260000 
 N        2.8974760000    -1.1472520000     0.7899640000 
 H        0.6261760000     0.8482080000    -0.5149000000 
 H        0.5313010000    -0.0522630000     1.0265120000 
 H        0.5969720000    -0.9157920000    -0.5340810000 
 H        2.3151590000     1.3224620000     1.6479100000 
 H        2.9681880000     1.9803330000     0.1267330000 
 H        4.6558630000     1.0634880000     2.1658420000 
 H        5.0821020000     0.7793640000     0.4724150000 
 H        2.7750070000    -2.0523650000     0.3593200000 
*
