! RI PBE def2-SVP def2-SVP/J NBO PAL2
% maxcore 2000
% output
    # printlevel mini
    print[ P_Basis ] 0
    print[ P_SCFInfo ] 1
    print[ P_SCFIterInfo ] 1
    print[ P_OrbEn ] 0
    print[ P_Cartesian ] 0
end
*xyz 0 1
 C        0.9161890000     0.0040770000    -0.0646050000 
 N        2.3530970000     0.0216530000    -0.0598020000 
 C        3.1843940000     1.1278940000    -0.0565100000 
 C        4.4550340000     0.6879050000    -0.0523400000 
 N        4.4019600000    -0.6940990000    -0.0531150000 
 C        3.0975000000    -1.1396320000    -0.0577660000 
 O        2.6839180000    -2.2833580000    -0.0596130000 
 H        0.5489960000     1.0293070000    -0.0656410000 
 H        0.5351770000    -0.5138570000     0.8176810000 
 H        0.5411130000    -0.5135170000    -0.9496270000 
 H        2.7994700000     2.1331880000    -0.0574080000 
 H        5.3801950000     1.2367160000    -0.0489370000 
 H        5.1783380000    -1.3291880000    -0.0507080000 
*
