! RI PBE def2-SVP def2-SVP/J NBO PAL2
% maxcore 2000
% output
    # printlevel mini
    print[ P_Basis ] 0
    print[ P_SCFInfo ] 1
    print[ P_SCFIterInfo ] 1
    print[ P_OrbEn ] 0
    print[ P_Cartesian ] 0
end
*xyz 0 1
 C        1.1008590000    -0.0061800000     0.3166190000 
 N        2.4846810000     0.0883760000    -0.0493740000 
 C        3.2190590000     1.3217870000    -0.1624650000 
 C        4.6362680000     0.8614890000    -0.5759910000 
 N        4.4981290000    -0.5691030000    -0.6354960000 
 C        3.2406910000    -1.0153500000    -0.3277680000 
 O        2.8607810000    -2.1673370000    -0.3039890000 
 H        0.7108410000     0.9970790000     0.4899840000 
 H        0.9682930000    -0.5939410000     1.2291380000 
 H        0.5100820000    -0.4778570000    -0.4734600000 
 H        3.2373390000     1.8683130000     0.7872350000 
 H        2.7786010000     1.9853410000    -0.9152010000 
 H        5.3833490000     1.1714780000     0.1608640000 
 H        4.9237970000     1.2867040000    -1.5422880000 
 H        5.2272510000    -1.2123820000    -0.8757070000 
*
