! RI PBE def2-SVP def2-SVP/J NBO PAL2
% maxcore 2000
% output
    # printlevel mini
    print[ P_Basis ] 0
    print[ P_SCFInfo ] 1
    print[ P_SCFIterInfo ] 1
    print[ P_OrbEn ] 0
    print[ P_Cartesian ] 0
end
*xyz 0 1
 C        1.0649830000    -0.0394140000     0.0551860000 
 N        2.5018910000    -0.0218360000     0.0600360000 
 C        3.3331890000     1.0844020000     0.0632920000 
 C        4.6038290000     0.6444120000     0.0674320000 
 N        4.5507540000    -0.7375910000     0.0666960000 
 C        3.2462920000    -1.1831230000     0.0620980000 
 O        2.8327090000    -2.3268480000     0.0602520000 
 H        0.6977870000     0.9858150000     0.0542380000 
 H        0.6839530000    -0.5574310000     0.9374150000 
 H        0.6899270000    -0.5569260000    -0.8298930000 
 H        2.9482660000     2.0896970000     0.0623820000 
 H        5.5289890000     1.1932250000     0.0707890000 
 H        5.3271310000    -1.3726810000     0.0690850000 
*
