! RI PBE def2-SVP def2-SVP/J NBO PAL2
% maxcore 2000
% output
    # printlevel mini
    print[ P_Basis ] 0
    print[ P_SCFInfo ] 1
    print[ P_SCFIterInfo ] 1
    print[ P_OrbEn ] 0
    print[ P_Cartesian ] 0
end
*xyz 0 1
 C        0.9466970000    -0.0460820000     0.1458620000 
 N        2.3688920000     0.0796420000     0.3524910000 
 C        2.9774510000     1.1897080000    -0.3390570000 
 C        4.4445560000     1.2189090000     0.0188480000 
 O        5.0531240000    -0.0305600000    -0.2837060000 
 C        4.2386620000    -1.1005350000    -0.1688890000 
 N        3.0044000000    -1.1238500000     0.1173150000 
 H        0.4522700000     0.8595790000     0.5035120000 
 H        0.5841570000    -0.8984220000     0.7189880000 
 H        0.6837710000    -0.1997180000    -0.9123120000 
 H        2.4979030000     2.1211970000    -0.0287990000 
 H        2.8649560000     1.0937930000    -1.4329800000 
 H        4.5706000000     1.4253670000     1.0854570000 
 H        4.9820720000     1.9746390000    -0.5561090000 
 H        4.7617890000    -2.0332770000    -0.3404100000 
*
