! RI PBE def2-SVP def2-SVP/J NBO PAL2
% maxcore 2000
% output
    # printlevel mini
    print[ P_Basis ] 0
    print[ P_SCFInfo ] 1
    print[ P_SCFIterInfo ] 1
    print[ P_OrbEn ] 0
    print[ P_Cartesian ] 0
end
*xyz 0 1
 C        1.0081930000     0.0734060000    -0.2241790000 
 N        2.4286100000     0.0345650000     0.0075240000 
 C        3.2518420000    -1.1457270000     0.0706080000 
 C        4.6405950000    -0.5357410000     0.3380630000 
 O        5.6533330000    -1.1671140000     0.4663450000 
 N        4.5003830000     0.8522340000     0.4010380000 
 C        3.2377450000     1.0845640000     0.2066590000 
 H        0.6442310000    -0.9453020000    -0.3494320000 
 H        0.7633490000     0.6318920000    -1.1320390000 
 H        0.4743690000     0.5198270000     0.6195310000 
 H        3.2519080000    -1.7077770000    -0.8675030000 
 H        2.9621530000    -1.8162400000     0.8845200000 
 H        2.8193000000     2.0876020000     0.1997530000 
*
