! RI PBE def2-SVP def2-SVP/J NBO PAL2
% maxcore 2000
% output
    # printlevel mini
    print[ P_Basis ] 0
    print[ P_SCFInfo ] 1
    print[ P_SCFIterInfo ] 1
    print[ P_OrbEn ] 0
    print[ P_Cartesian ] 0
end
*xyz 0 1
 C        0.9229820000     0.0349710000    -0.0576490000 
 N        2.3623290000     0.0283360000    -0.0537050000 
 C        3.2090380000     1.1016080000    -0.0500320000 
 N        4.4593090000     0.7399880000    -0.0469450000 
 C        4.4528350000    -0.6314190000    -0.0486610000 
 C        3.1598080000    -1.0754570000    -0.0528330000 
 O        2.5653220000    -2.2873040000    -0.0559630000 
 H        0.5817860000     1.0692250000    -0.0576890000 
 H        0.5294360000    -0.4683990000     0.8274070000 
 H        0.5343400000    -0.4668440000    -0.9457470000 
 H        2.8351860000     2.1151210000    -0.0498350000 
 H        5.3617350000    -1.2135300000    -0.0468250000 
 H        3.2476140000    -2.9633070000    -0.0553230000 
*
