! RI PBE def2-SVP def2-SVP/J NBO PAL2
% maxcore 2000
% output
    # printlevel mini
    print[ P_Basis ] 0
    print[ P_SCFInfo ] 1
    print[ P_SCFIterInfo ] 1
    print[ P_OrbEn ] 0
    print[ P_Cartesian ] 0
end
*xyz 0 1
 C        1.0820920000     0.0138200000    -0.0572990000 
 N        2.4981350000     0.0065430000     0.1934770000 
 C        3.3292780000    -1.0894290000     0.3466340000 
 N        4.5571090000    -0.8422810000     0.5626960000 
 C        4.6636620000     0.6063070000     0.5736520000 
 C        3.2673520000     1.1477450000     0.3234430000 
 O        2.8628830000     2.2803270000     0.2456410000 
 H        0.7223140000    -1.0131240000    -0.1153670000 
 H        0.8618430000     0.5238760000    -0.9971510000 
 H        0.5534900000     0.5334360000     0.7443040000 
 H        2.9102280000    -2.0889940000     0.2778950000 
 H        5.3551560000     0.9566120000    -0.1981040000 
 H        5.0487700000     0.9660620000     1.5321690000 
*
