! RI PBE def2-SVP def2-SVP/J NBO PAL2
% maxcore 2000
% output
    # printlevel mini
    print[ P_Basis ] 0
    print[ P_SCFInfo ] 1
    print[ P_SCFIterInfo ] 1
    print[ P_OrbEn ] 0
    print[ P_Cartesian ] 0
end
*xyz 0 1
 C        1.0625260000     0.0820800000    -0.0163250000 
 N        2.4989130000     0.0292510000    -0.0202900000 
 N        3.2379390000     1.1560420000    -0.0249450000 
 C        4.4896830000     0.7389760000    -0.0275890000 
 C        4.5865680000    -0.6642280000    -0.0247230000 
 C        3.2706380000    -1.0695590000    -0.0200390000 
 O        2.6690160000    -2.2738580000    -0.0156180000 
 H        0.7841730000     1.1330740000    -0.0176440000 
 H        0.6568710000    -0.4032270000     0.8737590000 
 H        0.6518190000    -0.4067860000    -0.9021370000 
 H        5.2921870000     1.4617720000    -0.0315050000 
 H        5.4697580000    -1.2820930000    -0.0258690000 
 H        3.3436970000    -2.9572240000    -0.0159530000 
*
