! RI PBE def2-SVP def2-SVP/J NBO PAL2
% maxcore 2000
% output
    # printlevel mini
    print[ P_Basis ] 0
    print[ P_SCFInfo ] 1
    print[ P_SCFIterInfo ] 1
    print[ P_OrbEn ] 0
    print[ P_Cartesian ] 0
end
*xyz 0 1
 C        1.0629510000     0.0502180000    -0.0366110000 
 N        2.4793140000     0.0784830000     0.2008560000 
 N        3.1915780000    -1.0829200000     0.3687530000 
 C        4.4166590000    -0.7728850000     0.5624640000 
 C        4.6494630000     0.6955040000     0.5412440000 
 C        3.2438140000     1.2107990000     0.2830980000 
 O        2.8438560000     2.3452080000     0.1690060000 
 H        0.7479370000    -0.9906510000    -0.0470620000 
 H        0.8239060000     0.5169680000    -0.9947450000 
 H        0.5298810000     0.5884280000     0.7502760000 
 H        5.1523480000    -1.5506220000     0.7184940000 
 H        5.3311700000     1.0197580000    -0.2498820000 
 H        5.0390210000     1.0911110000     1.4833090000 
*
