! RI PBE def2-SVP def2-SVP/J NBO PAL2
% maxcore 2000
% output
    # printlevel mini
    print[ P_Basis ] 0
    print[ P_SCFInfo ] 1
    print[ P_SCFIterInfo ] 1
    print[ P_OrbEn ] 0
    print[ P_Cartesian ] 0
end
*xyz 0 1
 C        1.2173350000    -0.0026750000     0.2097590000 
 N        2.6281400000    -0.0423850000    -0.0147960000 
 N        3.3827890000     1.1449590000     0.0852540000 
 C        4.5981670000     0.8365360000    -0.6838500000 
 C        4.7743180000    -0.6700050000    -0.5663160000 
 C        3.3412790000    -1.1413710000    -0.3737040000 
 O        2.8970840000    -2.2588160000    -0.5227650000 
 H        0.7468620000     0.7351970000    -0.4445600000 
 H        0.9822730000     0.2503030000     1.2492000000 
 H        0.8289340000    -0.9974040000    -0.0082320000 
 H        3.6441560000     1.2541950000     1.0656280000 
 H        5.4318420000     1.4255440000    -0.3016390000 
 H        4.4236290000     1.1209500000    -1.7251370000 
 H        5.3585930000    -0.9628600000     0.3123480000 
 H        5.2145990000    -1.1473690000    -1.4401720000 
*
