! RI PBE def2-SVP def2-SVP/J NBO PAL2
% maxcore 2000
% output
    # printlevel mini
    print[ P_Basis ] 0
    print[ P_SCFInfo ] 1
    print[ P_SCFIterInfo ] 1
    print[ P_OrbEn ] 0
    print[ P_Cartesian ] 0
end
*xyz 0 1
 C        1.2120540000    -0.0618240000     0.1928600000 
 N        2.5017950000    -0.1119010000    -0.4275450000 
 O        3.2764770000     1.0343290000    -0.1156310000 
 C        4.5276470000     0.7405380000    -0.7140400000 
 C        4.7299160000    -0.7393960000    -0.4361130000 
 C        3.3031890000    -1.2317870000    -0.3418450000 
 N        2.8258070000    -2.4016850000    -0.2216960000 
 H        0.6203100000     0.7409260000    -0.2471070000 
 H        1.2930100000     0.0916080000     1.2755990000 
 H        0.7356790000    -1.0227010000     0.0036530000 
 H        5.2642180000     1.3969200000    -0.2523760000 
 H        4.4800670000     0.9356080000    -1.7924070000 
 H        5.2215960000    -0.9116790000     0.5251390000 
 H        5.2899830000    -1.2613630000    -1.2120600000 
 H        3.5650410000    -3.0960030000    -0.2591420000 
*
