! RI PBE def2-SVP def2-SVP/J NBO PAL2
% maxcore 2000
% output
    # printlevel mini
    print[ P_Basis ] 0
    print[ P_SCFInfo ] 1
    print[ P_SCFIterInfo ] 1
    print[ P_OrbEn ] 0
    print[ P_Cartesian ] 0
end
*xyz 0 1
 C        1.1993370000    -0.0215230000     0.1421270000 
 N        2.5315180000    -0.1560630000    -0.3516920000 
 O        3.2288430000     1.0563320000    -0.4688340000 
 C        4.4922800000     0.6600730000    -1.0041110000 
 C        4.7695020000    -0.6863540000    -0.3677820000 
 C        3.3663380000    -1.2045930000    -0.1118990000 
 O        3.0213090000    -2.3156770000     0.2193850000 
 H        1.1821920000     0.5552310000     1.0729140000 
 H        0.8379420000    -1.0317210000     0.3334200000 
 H        0.5619850000     0.4658480000    -0.5972470000 
 H        5.1999830000     1.4474730000    -0.7493690000 
 H        4.4122740000     0.5723320000    -2.0942160000 
 H        5.2774600000    -0.6033850000     0.5972020000 
 H        5.3299170000    -1.3764640000    -0.9960790000 
*
