! RI PBE def2-SVP def2-SVP/J NBO PAL2
% maxcore 2000
% output
    # printlevel mini
    print[ P_Basis ] 0
    print[ P_SCFInfo ] 1
    print[ P_SCFIterInfo ] 1
    print[ P_OrbEn ] 0
    print[ P_Cartesian ] 0
end
*xyz 0 1
 C        1.0531720000     0.0468180000    -0.0336750000 
 N        2.3958610000    -0.1462110000     0.4485810000 
 O        3.0723100000     1.0648780000     0.5869860000 
 C        4.1970150000     1.1248840000    -0.2859680000 
 C        5.1126470000    -0.0400520000     0.0093980000 
 N        4.4021640000    -1.2960590000    -0.0813680000 
 C        3.1419940000    -1.2288800000     0.0697700000 
 H        0.5155700000     0.7007200000     0.6535770000 
 H        0.5537020000    -0.9227270000    -0.0558270000 
 H        1.0282940000     0.4857740000    -1.0387140000 
 H        4.6578970000     2.0924240000    -0.0841240000 
 H        3.8618070000     1.0978680000    -1.3309060000 
 H        5.5450290000     0.0760500000     1.0099740000 
 H        5.9486500000    -0.0565020000    -0.6977850000 
 H        2.5318770000    -2.1223740000    -0.0645300000 
*
