! RI PBE def2-SVP def2-SVP/J NBO PAL2
% maxcore 2000
% output
    # printlevel mini
    print[ P_Basis ] 0
    print[ P_SCFInfo ] 1
    print[ P_SCFIterInfo ] 1
    print[ P_OrbEn ] 0
    print[ P_Cartesian ] 0
end
*xyz 0 1
 C        1.6963760000     0.6334710000    -0.2580300000 
 N        2.7542080000    -0.2851530000     0.1068640000 
 C        3.1652670000    -0.1757350000     1.4687700000 
 C        4.5864340000    -0.4068090000     1.8424140000 
 C        3.9925630000     0.9757240000     1.9824480000 
 C        3.7638460000     1.5406740000     3.3500960000 
 O        4.9364880000     2.0708960000     3.9360860000 
 H        1.4515090000     0.5096070000    -1.3146130000 
 H        1.9398360000     1.6922400000    -0.0765240000 
 H        0.7967830000     0.3982370000     0.3172320000 
 H        3.5485350000    -0.1805230000    -0.5101060000 
 H        2.4220570000    -0.5623960000     2.1626190000 
 H        5.2985940000    -0.5744100000     1.0421440000 
 H        4.7901200000    -0.9773730000     2.7422210000 
 H        4.3089970000     1.6975850000     1.2344580000 
 H        3.3225830000     0.7641650000     3.9937620000 
 H        3.0535500000     2.3706480000     3.3097360000 
 H        5.6252730000     1.4046520000     3.8585110000 
*
