! RI PBE def2-SVP def2-SVP/J NBO PAL2
% maxcore 2000
% output
    # printlevel mini
    print[ P_Basis ] 0
    print[ P_SCFInfo ] 1
    print[ P_SCFIterInfo ] 1
    print[ P_OrbEn ] 0
    print[ P_Cartesian ] 0
end
*xyz 0 1
 C        0.8350450000    -0.6007370000     0.5949290000 
 N        1.9766790000    -0.5766690000    -0.3008890000 
 C        2.9335470000    -1.5928420000    -0.0178070000 
 C        2.7233760000    -2.9282330000    -0.6104640000 
 C        3.8183890000    -2.0416430000    -1.1670000000 
 C        5.2140320000    -2.3854970000    -0.8564070000 
 O        5.5697940000    -2.9359110000     0.1561710000 
 H        0.1581740000     0.2173890000     0.3421420000 
 H        1.1002940000    -0.5152780000     1.6599160000 
 H        0.2901920000    -1.5380890000     0.4623220000 
 H        2.4201510000     0.3328560000    -0.2748400000 
 H        3.4435800000    -1.5830170000     0.9480590000 
 H        1.8563750000    -3.0610180000    -1.2447720000 
 H        3.0602400000    -3.7909600000    -0.0496910000 
 H        3.6295350000    -1.5653740000    -2.1208100000 
 H        5.9591890000    -2.0947760000    -1.6267570000 
*
