! RI PBE def2-SVP def2-SVP/J NBO PAL2
% maxcore 2000
% output
    # printlevel mini
    print[ P_Basis ] 0
    print[ P_SCFInfo ] 1
    print[ P_SCFIterInfo ] 1
    print[ P_OrbEn ] 0
    print[ P_Cartesian ] 0
end
*xyz 0 1
 C        3.5983790000     0.3036950000    -1.9983420000 
 N        3.1468930000     1.2749710000    -1.0235200000 
 C        3.9447670000     1.3169360000     0.1566300000 
 C        5.1855800000     2.1725330000     0.1326920000 
 C        4.0087730000     2.5977480000     0.9315430000 
 O        4.1392430000     2.5526730000     2.3095810000 
 C        2.9028650000     2.3998950000     2.9588690000 
 H        2.9325300000     0.3142580000    -2.8637830000 
 H        3.6496980000    -0.7276500000    -1.6139090000 
 H        4.5986530000     0.5764490000    -2.3435520000 
 H        2.1767670000     1.1121910000    -0.7856810000 
 H        4.0305240000     0.4090450000     0.7602720000 
 H        5.3963600000     2.7191720000    -0.7776430000 
 H        6.0466650000     1.8170200000     0.6839240000 
 H        3.4088750000     3.4230000000     0.5490350000 
 H        3.0977810000     2.3840780000     4.0313790000 
 H        2.4096080000     1.4625630000     2.6701590000 
 H        2.2252280000     3.2341220000     2.7328250000 
*
