! RI PBE def2-SVP def2-SVP/J NBO PAL2
% maxcore 2000
% output
    # printlevel mini
    print[ P_Basis ] 0
    print[ P_SCFInfo ] 1
    print[ P_SCFIterInfo ] 1
    print[ P_OrbEn ] 0
    print[ P_Cartesian ] 0
end
*xyz 0 1
 C        1.2945740000     0.5300660000    -0.0868730000 
 N        2.0600730000     0.2149800000    -1.2793820000 
 C        2.9057760000    -0.9450610000    -1.1845890000 
 C        3.8249020000    -1.0833460000     0.0000070000 
 C        3.3743170000    -1.4772200000    -2.5171220000 
 C        2.2614820000    -2.1668670000    -1.7843420000 
 O        0.9646970000    -2.0644450000    -2.2564960000 
 H        0.6157630000     1.3571190000    -0.3042770000 
 H        1.9022260000     0.8084320000     0.7849210000 
 H        0.6878250000    -0.3355270000     0.1889460000 
 H        2.5845340000     1.0191240000    -1.5988910000 
 H        3.2761000000    -1.0725360000     0.9450500000 
 H        4.5621270000    -0.2735440000     0.0239390000 
 H        4.3718420000    -2.0272120000    -0.0500290000 
 H        4.3525180000    -1.9414050000    -2.5617110000 
 H        3.0848550000    -0.9194700000    -3.4003300000 
 H        2.4557250000    -3.1321800000    -1.3305180000 
 H        0.7966720000    -1.1081970000    -2.2873920000 
*
