! RI PBE def2-SVP def2-SVP/J NBO PAL2
% maxcore 2000
% output
    # printlevel mini
    print[ P_Basis ] 0
    print[ P_SCFInfo ] 1
    print[ P_SCFIterInfo ] 1
    print[ P_OrbEn ] 0
    print[ P_Cartesian ] 0
end
*xyz 0 1
 C        2.6543820000    -0.3061600000     1.2835570000 
 N        2.4525800000     0.3097290000    -0.0093420000 
 C        3.3778510000     1.3533030000    -0.3052980000 
 C        2.9657570000     2.5735830000    -1.0819920000 
 C        1.5565090000     2.8012760000    -1.5529530000 
 C        3.3386760000     2.7093210000     0.3570080000 
 O        4.5150910000     3.4006600000     0.6388160000 
 H        1.8914750000    -1.0688600000     1.4519130000 
 H        2.6298750000     0.4027440000     2.1271180000 
 H        3.6271040000    -0.8061030000     1.3016240000 
 H        1.4994490000     0.6242770000    -0.1169410000 
 H        4.3797400000     0.9910180000    -0.5272200000 
 H        3.7332190000     2.9317160000    -1.7607010000 
 H        1.3348670000     2.2170190000    -2.4499210000 
 H        0.8183070000     2.5372000000    -0.7914160000 
 H        1.4004380000     3.8560020000    -1.7925320000 
 H        2.5154530000     2.8850800000     1.0510050000 
 H        4.9438070000     2.9735650000     1.3853750000 
*
