! RI PBE def2-SVP def2-SVP/J NBO PAL2
% maxcore 2000
% output
    # printlevel mini
    print[ P_Basis ] 0
    print[ P_SCFInfo ] 1
    print[ P_SCFIterInfo ] 1
    print[ P_OrbEn ] 0
    print[ P_Cartesian ] 0
end
*xyz 0 1
 C        0.9390020000     0.0619100000     0.1491100000 
 N        2.3768120000     0.0609020000     0.0570890000 
 C        2.8689950000    -0.0069190000    -1.1003660000 
 O        4.2673160000    -0.0090070000    -1.2046280000 
 N        4.5562660000    -0.0887410000    -2.5413960000 
 C        3.4360280000    -0.1352200000    -3.2687520000 
 C        2.3603020000    -0.0893700000    -2.4483880000 
 H        0.6449340000     0.1220530000     1.1978420000 
 H        0.4895240000    -0.8511830000    -0.2665580000 
 H        0.4843960000     0.9180630000    -0.3694080000 
 H        5.5292240000    -0.0984690000    -2.7735790000 
 H        3.4958580000    -0.1994270000    -4.3456590000 
 H        1.3228510000    -0.1093820000    -2.7300970000 
*
