! RI PBE def2-SVP def2-SVP/J NBO PAL2
% maxcore 2000
% output
    # printlevel mini
    print[ P_Basis ] 0
    print[ P_SCFInfo ] 1
    print[ P_SCFIterInfo ] 1
    print[ P_OrbEn ] 0
    print[ P_Cartesian ] 0
end
*xyz 0 1
 C        2.8357670000    -0.7817220000     0.8563510000 
 N        2.3946070000     0.5049810000     0.3570440000 
 C        3.0632400000     0.9740660000    -0.8299470000 
 C        2.8052470000     0.0666320000    -2.0151240000 
 C        2.8038170000     2.4543280000    -1.1419930000 
 O        4.2027900000     2.7167790000    -1.2939240000 
 C        4.5427230000     1.4388620000    -0.7433410000 
 H        2.3712610000    -0.9666150000     1.8263020000 
 H        3.9276180000    -0.8669990000     0.9811220000 
 H        2.5130120000    -1.5814660000     0.1868820000 
 H        2.4887560000     1.2011860000     1.0859600000 
 H        3.2578990000    -0.9180270000    -1.8764170000 
 H        1.7307880000    -0.0638320000    -2.1637120000 
 H        3.2352350000     0.5026250000    -2.9191190000 
 H        2.3737590000     3.0087970000    -0.2971170000 
 H        2.2354180000     2.6808910000    -2.0488480000 
 H        4.9165260000     1.5263640000     0.2858630000 
 H        5.2813270000     0.9130410000    -1.3561730000 
*
