! RI PBE def2-SVP def2-SVP/J NBO PAL2
% maxcore 2000
% output
    # printlevel mini
    print[ P_Basis ] 0
    print[ P_SCFInfo ] 1
    print[ P_SCFIterInfo ] 1
    print[ P_OrbEn ] 0
    print[ P_Cartesian ] 0
end
*xyz 0 1
 C        2.9816540000     0.2043140000    -1.1671890000 
 N        2.1860310000     0.0740880000     0.0348810000 
 C        2.7747820000    -0.7718390000     1.0311100000 
 C        1.9515050000    -1.0361520000     2.2999980000 
 C        2.5210280000    -2.4687700000     2.3279880000 
 O        3.7084170000    -2.5860550000     3.0835860000 
 C        2.8914290000    -2.3141020000     0.8489130000 
 H        2.4608140000     0.8376630000    -1.8880930000 
 H        3.2195950000    -0.7522680000    -1.6595000000 
 H        3.9288050000     0.6934060000    -0.9227990000 
 H        1.2582810000    -0.2620330000    -0.1955280000 
 H        3.7547080000    -0.3626500000     1.2920190000 
 H        0.8808220000    -1.0434850000     2.0740230000 
 H        2.1253380000    -0.4029160000     3.1724360000 
 H        1.8199330000    -3.2715170000     2.5829630000 
 H        3.4882320000    -2.4620250000     4.0105260000 
 H        2.0986960000    -2.6943860000     0.1985790000 
 H        3.8481610000    -2.7448830000     0.5517880000 
*
