! RI PBE def2-SVP def2-SVP/J NBO PAL2
% maxcore 2000
% output
    # printlevel mini
    print[ P_Basis ] 0
    print[ P_SCFInfo ] 1
    print[ P_SCFIterInfo ] 1
    print[ P_OrbEn ] 0
    print[ P_Cartesian ] 0
end
*xyz 0 1
 C        1.0407620000    -0.2192970000    -0.3212090000 
 N        2.3844260000    -0.1043480000     0.1647630000 
 C        3.1098710000    -1.1664210000     0.5927270000 
 N        4.3398510000    -1.0230990000     1.0332990000 
 O        4.7620030000    -2.2958630000     1.3781120000 
 C        3.7830340000    -3.1580240000     1.1370980000 
 C        2.6959610000    -2.5313410000     0.6373820000 
 H        0.6813860000     0.7703940000    -0.6010200000 
 H        0.3588970000    -0.6177100000     0.4394200000 
 H        0.9759020000    -0.8596250000    -1.2088870000 
 H        2.8299410000     0.7933350000     0.2011350000 
 H        3.9914620000    -4.1919880000     1.3667710000 
 H        1.7536050000    -2.9631120000     0.3470190000 
*
