! RI PBE def2-SVP def2-SVP/J NBO PAL2
% maxcore 2000
% output
    # printlevel mini
    print[ P_Basis ] 0
    print[ P_SCFInfo ] 1
    print[ P_SCFIterInfo ] 1
    print[ P_OrbEn ] 0
    print[ P_Cartesian ] 0
end
*xyz 0 1
 C        1.1564410000     0.0113510000    -0.1184950000 
 N        2.5768270000     0.1029860000     0.0778990000 
 C        3.1088580000    -0.4726340000     1.0635470000 
 C        2.5513420000    -1.3753750000     2.1453130000 
 C        3.7833510000    -1.6070940000     3.0088860000 
 O        4.8745180000    -1.4461380000     2.1208130000 
 N        4.4687420000    -0.3247620000     1.3482970000 
 H        0.9526870000    -0.3933870000    -1.1143300000 
 H        0.7178350000     1.0139970000    -0.0941910000 
 H        0.6272640000    -0.6097070000     0.6163330000 
 H        2.1882510000    -2.3002460000     1.6897050000 
 H        1.7255420000    -0.9133800000     2.6869510000 
 H        3.8598350000    -2.6079970000     3.4319400000 
 H        3.8428520000    -0.8606420000     3.8109460000 
 H        5.0690440000    -0.2747810000     0.5350860000 
*
