! RI PBE def2-SVP def2-SVP/J NBO PAL2
% maxcore 2000
% output
    # printlevel mini
    print[ P_Basis ] 0
    print[ P_SCFInfo ] 1
    print[ P_SCFIterInfo ] 1
    print[ P_OrbEn ] 0
    print[ P_Cartesian ] 0
end
*xyz 0 1
 C        2.7395820000     1.2463840000     0.1321500000 
 N        2.0411880000    -0.0148250000     0.0075560000 
 C        2.6067990000    -1.0621870000     0.7871290000 
 C        2.5615180000    -2.4710990000     0.2592510000 
 N        2.0487540000    -2.6496790000    -1.0657470000 
 C        3.8788470000    -1.7544880000     0.4052280000 
 O        4.7438580000    -2.1111740000     1.4349360000 
 H        2.2786390000     1.9855370000    -0.5261880000 
 H        3.8137480000     1.1883730000    -0.1051230000 
 H        2.6505130000     1.6168840000     1.1572590000 
 H        1.9959620000    -0.3188800000    -0.9575130000 
 H        2.4550100000    -0.9636650000     1.8589900000 
 H        2.3742350000    -3.2401540000     1.0088480000 
 H        1.0457210000    -2.7852850000    -1.0556040000 
 H        2.4686730000    -3.4470810000    -1.5252220000 
 H        4.3441230000    -1.4295140000    -0.5246560000 
 H        5.1337190000    -2.9650360000     1.2269070000 
*
