! RI PBE def2-SVP def2-SVP/J NBO PAL2
% maxcore 2000
% output
    # printlevel mini
    print[ P_Basis ] 0
    print[ P_SCFInfo ] 1
    print[ P_SCFIterInfo ] 1
    print[ P_OrbEn ] 0
    print[ P_Cartesian ] 0
end
*xyz 0 1
 C        2.5496410000     0.7643590000    -0.7719950000 
 N        2.1566660000    -0.0456420000     0.3689680000 
 C        2.9311140000    -1.2380300000     0.5251640000 
 C        2.6012430000    -2.1450570000     1.7354460000 
 N        2.4576560000    -3.2461930000     0.7930830000 
 C        2.6277600000    -2.4979060000    -0.3360680000 
 O        2.5325460000    -2.7508110000    -1.5056770000 
 H        1.9053730000     1.6438010000    -0.8248510000 
 H        2.5055530000     0.2370090000    -1.7333380000 
 H        3.5747290000     1.1152510000    -0.6242720000 
 H        1.1721450000    -0.2763530000     0.3056440000 
 H        3.9936130000    -0.9833100000     0.4763000000 
 H        1.6729880000    -1.8619300000     2.2389450000 
 H        3.3977900000    -2.2735610000     2.4714220000 
 H        2.1804920000    -4.2068160000     0.9187380000 
*
