! RI PBE def2-SVP def2-SVP/J NBO PAL2
% maxcore 2000
% output
    # printlevel mini
    print[ P_Basis ] 0
    print[ P_SCFInfo ] 1
    print[ P_SCFIterInfo ] 1
    print[ P_OrbEn ] 0
    print[ P_Cartesian ] 0
end
*xyz 0 1
 C        2.6734940000     1.0557100000     0.0156990000 
 N        2.0443910000    -0.2359290000    -0.1732810000 
 C        2.8043920000    -1.3213830000     0.3488890000 
 C        2.7182580000    -2.6603660000    -0.3293350000 
 O        2.0109800000    -2.7709870000    -1.5247180000 
 C        3.9961740000    -1.8847210000    -0.3749660000 
 O        5.0821010000    -2.2976580000     0.3879040000 
 H        2.0599100000     1.8315720000    -0.4461730000 
 H        3.6913680000     1.1196670000    -0.3985790000 
 H        2.7378970000     1.2773280000     1.0842680000 
 H        1.8571650000    -0.4019250000    -1.1541290000 
 H        2.8698220000    -1.3470090000     1.4335860000 
 H        2.7060700000    -3.5399320000     0.3111430000 
 H        1.0720820000    -2.7841480000    -1.3150630000 
 H        4.2245890000    -1.4249630000    -1.3365680000 
 H        5.4492990000    -3.0928670000    -0.0094780000 
*
