! RI PBE def2-SVP def2-SVP/J NBO PAL2
% maxcore 2000
% output
    # printlevel mini
    print[ P_Basis ] 0
    print[ P_SCFInfo ] 1
    print[ P_SCFIterInfo ] 1
    print[ P_OrbEn ] 0
    print[ P_Cartesian ] 0
end
*xyz 0 1
 C        3.1309550000     0.5514180000    -1.0365350000 
 N        2.2425560000     0.1357170000     0.0353750000 
 C        2.8040950000    -0.8335970000     0.9208170000 
 C        1.9558050000    -1.3242040000     2.0964350000 
 O        2.1437410000    -2.7036570000     1.6798490000 
 C        2.8238860000    -2.3297060000     0.5559630000 
 O        3.1979670000    -3.0246430000    -0.3280990000 
 H        2.6193510000     1.2880880000    -1.6578110000 
 H        3.4757930000    -0.2695550000    -1.6781270000 
 H        4.0097780000     1.0373400000    -0.6043060000 
 H        1.3652460000    -0.1977720000    -0.3450120000 
 H        3.8009510000    -0.5047610000     1.2282670000 
 H        0.9032180000    -1.0429590000     2.0410110000 
 H        2.3488680000    -1.1600000000     3.0990740000 
*
