! RI PBE def2-SVP def2-SVP/J NBO PAL2
% maxcore 2000
% output
    # printlevel mini
    print[ P_Basis ] 0
    print[ P_SCFInfo ] 1
    print[ P_SCFIterInfo ] 1
    print[ P_OrbEn ] 0
    print[ P_Cartesian ] 0
end
*xyz 0 1
 C        1.0815430000     0.5338950000     0.1918980000 
 N        2.4255910000     0.0463390000    -0.0334300000 
 C        2.9562890000     0.3897880000    -1.3485760000 
 C        4.3826800000    -0.1472890000    -1.5250330000 
 O        5.2806860000     0.9659500000    -1.4014830000 
 C        4.5138270000     2.0758760000    -1.4785540000 
 C        3.2029270000     1.8674120000    -1.5005420000 
 H        0.7088380000     0.1489380000     1.1427190000 
 H        0.3646730000     0.2535170000    -0.5988900000 
 H        1.0895930000     1.6239110000     0.2620540000 
 H        2.4320690000    -0.9629670000     0.0603570000 
 H        2.3007990000     0.0100440000    -2.1518570000 
 H        4.5290080000    -0.5807920000    -2.5184090000 
 H        4.6465930000    -0.8819830000    -0.7623340000 
 H        5.0658920000     3.0058890000    -1.5081810000 
 H        2.4450700000     2.6319700000    -1.5631300000 
*
