! RI PBE def2-SVP def2-SVP/J NBO PAL2
% maxcore 2000
% output
    # printlevel mini
    print[ P_Basis ] 0
    print[ P_SCFInfo ] 1
    print[ P_SCFIterInfo ] 1
    print[ P_OrbEn ] 0
    print[ P_Cartesian ] 0
end
*xyz 0 1
 C        2.1008960000     1.4741830000     0.1635650000 
 N        2.5275740000     0.1101250000    -0.0699880000 
 C        3.0561780000    -0.1154670000    -1.4061990000 
 C        3.4096610000    -1.5760210000    -1.6549970000 
 O        4.8427690000    -1.6551620000    -1.6114940000 
 N        5.3625690000    -0.3878100000    -1.6402420000 
 C        4.4329270000     0.4710500000    -1.5608860000 
 H        1.6160290000     1.5401760000     1.1385900000 
 H        1.4023460000     1.8588030000    -0.5982260000 
 H        2.9669320000     2.1396430000     0.1879520000 
 H        1.7477650000    -0.5183240000     0.0789250000 
 H        2.3780390000     0.2719480000    -2.1855680000 
 H        3.0813030000    -1.9141630000    -2.6417220000 
 H        3.0106610000    -2.2397910000    -0.8854100000 
 H        4.6883520000     1.5221000000    -1.5679880000 
*
