! RI PBE def2-SVP def2-SVP/J NBO PAL2
% maxcore 2000
% output
    # printlevel mini
    print[ P_Basis ] 0
    print[ P_SCFInfo ] 1
    print[ P_SCFIterInfo ] 1
    print[ P_OrbEn ] 0
    print[ P_Cartesian ] 0
end
*xyz 0 1
 C        2.6491280000    -1.4193170000     0.4287430000 
 N        2.4686410000    -0.0193640000     0.1565810000 
 C        3.0175470000     0.9631910000     0.8964520000 
 N        2.9054630000     2.2435050000     0.7219580000 
 C        3.6602610000     2.7756250000     1.7516040000 
 C        4.1882710000     1.7887330000     2.4946510000 
 O        3.7742070000     0.5933080000     1.9437270000 
 H        2.0998200000    -1.9903740000    -0.3183640000 
 H        2.2687350000    -1.6938730000     1.4172790000 
 H        3.7023550000    -1.7112690000     0.3764620000 
 H        1.9091990000     0.2848100000    -0.6172510000 
 H        3.7675140000     3.8409600000     1.8819330000 
 H        4.8185700000     1.7277670000     3.3633150000 
*
