! RI PBE def2-SVP def2-SVP/J NBO PAL2
% maxcore 2000
% output
    # printlevel mini
    print[ P_Basis ] 0
    print[ P_SCFInfo ] 1
    print[ P_SCFIterInfo ] 1
    print[ P_OrbEn ] 0
    print[ P_Cartesian ] 0
end
*xyz 0 1
 C        1.0450720000     0.2309100000    -0.0530340000 
 N        2.4839300000     0.2220810000    -0.0782890000 
 C        3.0295800000     0.4164890000    -1.1969300000 
 N        2.4791540000     0.6413160000    -2.4273910000 
 C        3.4499950000     0.8151530000    -3.4686700000 
 C        4.7561100000     0.6639770000    -2.6686930000 
 O        4.3793090000     0.4257280000    -1.3204680000 
 H        0.6983810000     0.0522620000     0.9655900000 
 H        0.6018220000    -0.5543120000    -0.6855210000 
 H        0.6180760000     1.1943090000    -0.3733420000 
 H        1.4878540000     0.6734530000    -2.5649160000 
 H        3.3776650000     1.7986780000    -3.9443230000 
 H        3.3626160000     0.0529550000    -4.2498990000 
 H        5.3679000000     1.5678610000    -2.7052160000 
 H        5.3567260000    -0.1789600000    -3.0169090000 
*
