! RI PBE def2-SVP def2-SVP/J NBO PAL2
% maxcore 2000
% output
    # printlevel mini
    print[ P_Basis ] 0
    print[ P_SCFInfo ] 1
    print[ P_SCFIterInfo ] 1
    print[ P_OrbEn ] 0
    print[ P_Cartesian ] 0
end
*xyz 0 1
 C        0.9281600000     0.0717960000    -0.0086560000 
 N        2.3685980000    -0.0024580000     0.0130860000 
 C        3.0159400000     0.9293590000    -0.5303320000 
 N        4.3819790000     1.0472040000    -0.6176100000 
 C        4.7083310000     2.2100040000    -1.2887460000 
 C        3.5587510000     2.8016280000    -1.6112070000 
 O        2.5043320000     2.0399170000    -1.1594370000 
 H        0.5198470000    -0.8027620000     0.4991270000 
 H        0.5249930000     0.0867680000    -1.0292470000 
 H        0.5471220000     0.9654350000     0.5018240000 
 H        5.0052560000     0.3629030000    -0.2344070000 
 H        5.7238590000     2.5125110000    -1.4767870000 
 H        3.3218320000     3.7128050000    -2.1299980000 
*
