! RI PBE def2-SVP def2-SVP/J NBO PAL2
% maxcore 2000
% output
    # printlevel mini
    print[ P_Basis ] 0
    print[ P_SCFInfo ] 1
    print[ P_SCFIterInfo ] 1
    print[ P_OrbEn ] 0
    print[ P_Cartesian ] 0
end
*xyz 0 1
 C        1.0288460000    -0.0223100000     0.2174500000 
 N        2.4641020000     0.1410440000     0.2185820000 
 C        3.0101470000     0.4130260000    -1.0930560000 
 C        4.5073090000     0.4767540000    -1.0505010000 
 C        5.3263060000    -0.7901700000    -1.1259610000 
 C        5.3177910000     0.1906380000    -2.2586480000 
 O        6.4249650000     1.0077920000    -2.4707990000 
 H        0.6835180000    -0.2792720000     1.2207600000 
 H        0.6644340000    -0.7945870000    -0.4818490000 
 H        0.5529360000     0.9220740000    -0.0623610000 
 H        2.9119230000    -0.6828190000     0.6009900000 
 H        2.6089820000     1.3746530000    -1.4356920000 
 H        2.6992710000    -0.3377650000    -1.8451250000 
 H        4.9177760000     1.2476780000    -0.4070420000 
 H        4.8092070000    -1.7337100000    -1.2645270000 
 H        6.2242080000    -0.8385930000    -0.5223780000 
 H        4.7814450000    -0.0974620000    -3.1614970000 
 H        7.1207430000     0.4737290000    -2.8634670000 
*
