! RI PBE def2-SVP def2-SVP/J NBO PAL2
% maxcore 2000
% output
    # printlevel mini
    print[ P_Basis ] 0
    print[ P_SCFInfo ] 1
    print[ P_SCFIterInfo ] 1
    print[ P_OrbEn ] 0
    print[ P_Cartesian ] 0
end
*xyz 0 1
 C        1.1712100000    -0.0978310000    -0.1445710000 
 N        2.5780390000    -0.4113120000    -0.2622480000 
 C        3.3845120000     0.1672310000     0.7890220000 
 C        4.8369780000    -0.2147970000     0.6359770000 
 C        5.7367920000     0.0965090000     1.8371610000 
 O        5.9293780000    -1.2949320000     2.1167820000 
 C        5.1805040000    -1.6741910000     0.9507120000 
 H        0.6263730000    -0.5150370000    -0.9935360000 
 H        0.9556680000     0.9825000000    -0.0920580000 
 H        0.7698880000    -0.5574130000     0.7629330000 
 H        2.9247930000    -0.1044550000    -1.1630460000 
 H        3.0153650000    -0.2157350000     1.7488390000 
 H        3.2972540000     1.2692430000     0.8419720000 
 H        5.2259750000     0.1435140000    -0.3208710000 
 H        5.2504770000     0.6196880000     2.6688530000 
 H        6.6814880000     0.5992280000     1.6029360000 
 H        4.3250500000    -2.3115400000     1.1941750000 
 H        5.8116460000    -2.1827600000     0.2144580000 
*
