! RI PBE def2-SVP def2-SVP/J NBO PAL2
% maxcore 2000
% output
    # printlevel mini
    print[ P_Basis ] 0
    print[ P_SCFInfo ] 1
    print[ P_SCFIterInfo ] 1
    print[ P_OrbEn ] 0
    print[ P_Cartesian ] 0
end
*xyz 0 1
 C        2.0207690000    -1.1941040000     0.3387150000 
 N        3.2945360000    -0.5617000000     0.0804030000 
 C        3.3415710000     0.8187350000     0.5073910000 
 C        4.6727740000     1.4182350000     0.1804650000 
 O        4.8767280000     1.7700720000    -1.1877580000 
 C        4.8315840000     2.8119320000    -0.2200280000 
 C        6.0981870000     3.5749580000     0.0067560000 
 H        2.0269680000    -2.2121810000    -0.0551520000 
 H        1.1585220000    -0.6609300000    -0.0961500000 
 H        1.8564550000    -1.2594460000     1.4182640000 
 H        3.5088900000    -0.6035240000    -0.9087690000 
 H        3.1940230000     0.8506920000     1.5941070000 
 H        2.5478130000     1.4399520000     0.0553960000 
 H        5.5277370000     0.9158870000     0.6323320000 
 H        3.9247190000     3.4148170000    -0.2794590000 
 H        6.9510750000     2.8968270000     0.0652430000 
 H        6.0395110000     4.1458890000     0.9372600000 
 H        6.2744390000     4.2792780000    -0.8100160000 
*
