! RI PBE def2-SVP def2-SVP/J NBO PAL2
% maxcore 2000
% output
    # printlevel mini
    print[ P_Basis ] 0
    print[ P_SCFInfo ] 1
    print[ P_SCFIterInfo ] 1
    print[ P_OrbEn ] 0
    print[ P_Cartesian ] 0
end
*xyz 0 1
 C        1.0029300000    -0.1567250000     0.1069890000 
 N        2.4469930000    -0.1850250000     0.0155210000 
 C        2.9624360000     0.1832000000    -1.2905070000 
 C        4.4532940000     0.3406030000    -1.1977560000 
 O        4.8336370000     1.2672320000    -0.2300810000 
 C        5.3399760000    -0.8545660000    -1.4155280000 
 C        5.3045840000     0.2831190000    -2.4082540000 
 H        0.6888800000    -0.4833240000     1.1001310000 
 H        0.4969290000    -0.7887240000    -0.6401430000 
 H        0.6492190000     0.8680290000    -0.0325130000 
 H        2.7926150000    -1.1056830000     0.2601570000 
 H        2.5195540000     1.1474040000    -1.5646770000 
 H        2.7025050000    -0.5353890000    -2.0851260000 
 H        4.2392320000     1.1037480000     0.5157150000 
 H        4.8936560000    -1.7996050000    -1.7044940000 
 H        6.2152170000    -0.9286630000    -0.7830610000 
 H        4.8326080000     0.1170760000    -3.3693810000 
 H        6.1564360000     0.9510040000    -2.4239910000 
*
