! RI PBE def2-SVP def2-SVP/J NBO PAL2
% maxcore 2000
% output
    # printlevel mini
    print[ P_Basis ] 0
    print[ P_SCFInfo ] 1
    print[ P_SCFIterInfo ] 1
    print[ P_OrbEn ] 0
    print[ P_Cartesian ] 0
end
*xyz 0 1
 C        0.6248910000     1.1013450000     0.1755630000 
 N        1.9385610000     0.5242710000     0.3493750000 
 C        2.5737790000     1.0421180000     1.5388430000 
 C        1.9110900000    -0.9243640000     0.3708870000 
 C        1.4941680000    -1.5354540000    -0.9377640000 
 C        2.4661690000    -1.7706840000    -1.9968300000 
 O        1.9969970000    -2.8393680000    -1.1888290000 
 H        0.7037890000     2.1903810000     0.1627050000 
 H       -0.0757800000     0.8199700000     0.9839750000 
 H        0.1892840000     0.7916010000    -0.7756100000 
 H        2.6397820000     2.1306890000     1.4775530000 
 H        3.5874990000     0.6444230000     1.6238300000 
 H        2.0271670000     0.7859110000     2.4651830000 
 H        1.2504550000    -1.3075100000     1.1737730000 
 H        2.9191900000    -1.2869360000     0.5902910000 
 H        0.4517300000    -1.4146060000    -1.2270130000 
 H        3.5015250000    -1.4822140000    -1.8323650000 
 H        2.1427130000    -1.7959660000    -3.0342560000 
*
