! RI PBE def2-SVP def2-SVP/J NBO PAL2
% maxcore 2000
% output
    # printlevel mini
    print[ P_Basis ] 0
    print[ P_SCFInfo ] 1
    print[ P_SCFIterInfo ] 1
    print[ P_OrbEn ] 0
    print[ P_Cartesian ] 0
end
*xyz 0 1
 C        1.0172590000     0.8968950000    -1.4906800000 
 N        2.4079930000     0.7749380000    -1.8655510000 
 C        3.0378860000    -0.4145880000    -1.3301760000 
 C        4.5070440000    -0.5012630000    -1.7071960000 
 C        4.7793190000    -0.5198520000    -3.2072070000 
 C        4.2285570000    -1.7377790000    -3.9257210000 
 O        4.7135450000    -2.9637860000    -3.4103270000 
 H        0.6105980000     1.8378160000    -1.8668870000 
 H        0.8418050000     0.8543350000    -0.4022910000 
 H        0.4437830000     0.0842900000    -1.9457950000 
 H        2.9186720000     1.5928030000    -1.5538370000 
 H        2.4990990000    -1.2842700000    -1.7226790000 
 H        2.9481910000    -0.4770260000    -0.2304680000 
 H        4.9250800000    -1.4026620000    -1.2500830000 
 H        5.0394900000     0.3466240000    -1.2589840000 
 H        5.8629490000    -0.4701580000    -3.3752200000 
 H        4.3491000000     0.3717930000    -3.6734440000 
 H        4.4408460000    -1.6563950000    -5.0005010000 
 H        3.1423630000    -1.7853000000    -3.8206000000 
 H        5.6672410000    -2.9804040000    -3.5252750000 
*
