! RI PBE def2-SVP def2-SVP/J NBO PAL2
% maxcore 2000
% output
    # printlevel mini
    print[ P_Basis ] 0
    print[ P_SCFInfo ] 1
    print[ P_SCFIterInfo ] 1
    print[ P_OrbEn ] 0
    print[ P_Cartesian ] 0
end
*xyz 0 1
 C        0.9566510000    -0.1892500000    -0.0253120000 
 N        2.3884380000     0.0042050000     0.0142450000 
 C        2.9462720000     0.9534680000    -0.8249310000 
 C        2.2795960000     1.7233480000    -1.6847060000 
 C        3.1330570000    -0.7670600000     0.8874930000 
 C        4.6255950000    -0.5520290000     0.9170260000 
 O        2.6062420000    -1.5881800000     1.6077540000 
 H        0.6437690000    -0.4943560000    -1.0274740000 
 H        0.4421660000     0.7399610000     0.2338770000 
 H        0.7005280000    -0.9637390000     0.6916050000 
 H        4.0201400000     1.0490890000    -0.7465620000 
 H        1.2069280000     1.6799400000    -1.8139970000 
 H        2.8274700000     2.4318110000    -2.2900000000 
 H        5.0834600000    -0.7572540000    -0.0531400000 
 H        5.0323340000    -1.2389540000     1.6547870000 
 H        4.8817640000     0.4709010000     1.2016250000 
*
