! RI PBE def2-SVP def2-SVP/J NBO PAL2
% maxcore 2000
% output
    # printlevel mini
    print[ P_Basis ] 0
    print[ P_SCFInfo ] 1
    print[ P_SCFIterInfo ] 1
    print[ P_OrbEn ] 0
    print[ P_Cartesian ] 0
end
*xyz 0 1
 C        1.5060770000    -0.3903130000     0.1882020000 
 N        2.9454250000    -0.3678340000     0.0357050000 
 C        3.4267030000    -1.6441430000    -0.4554280000 
 C        3.3645830000     0.7419590000    -0.8175630000 
 C        4.8437990000     1.0788480000    -0.7034620000 
 C        5.2507320000     1.4899130000     0.7026900000 
 O        5.1157460000     0.4466130000     1.6365270000 
 H        1.2173330000    -1.2040350000     0.8566120000 
 H        0.9826160000    -0.5355740000    -0.7727250000 
 H        1.1623570000     0.5492550000     0.6253940000 
 H        3.1120300000    -2.4395130000     0.2230180000 
 H        4.5159710000    -1.6522250000    -0.4950980000 
 H        3.0380230000    -1.8748090000    -1.4623760000 
 H        2.7866110000     1.6202820000    -0.5106910000 
 H        3.0981260000     0.5413180000    -1.8714400000 
 H        5.0546050000     1.9035110000    -1.3930350000 
 H        5.4628890000     0.2370030000    -1.0282410000 
 H        4.6565860000     2.3686880000     1.0053430000 
 H        6.3005140000     1.7971070000     0.7126340000 
 H        4.2478730000     0.0459610000     1.4510020000 
*
