! RI PBE def2-SVP def2-SVP/J NBO PAL2
% maxcore 2000
% output
    # printlevel mini
    print[ P_Basis ] 0
    print[ P_SCFInfo ] 1
    print[ P_SCFIterInfo ] 1
    print[ P_OrbEn ] 0
    print[ P_Cartesian ] 0
end
*xyz 0 1
 C        0.8819080000    -0.0585070000    -0.0258830000 
 N        2.3150460000    -0.0155790000     0.1232940000 
 C        2.9754670000    -0.7628680000     1.1706730000 
 C        3.0461620000     0.7280090000    -0.7211060000 
 C        2.6019160000     1.4877950000    -1.7534500000 
 C        3.5578330000     2.2160490000    -2.5463360000 
 O        3.2998730000     2.9290480000    -3.4923960000 
 H        0.4529310000    -0.7047530000     0.7372980000 
 H        0.6000220000    -0.4477610000    -1.0103210000 
 H        0.4450940000     0.9407100000     0.0783290000 
 H        2.2324810000    -1.3035100000     1.7539270000 
 H        3.5215870000    -0.1026380000     1.8517940000 
 H        3.6776300000    -1.4951420000     0.7598140000 
 H        4.1178220000     0.6993620000    -0.5320550000 
 H        1.5541760000     1.5753440000    -2.0141990000 
 H        4.6173520000     2.0801410000    -2.2220820000 
*
