! RI PBE def2-SVP def2-SVP/J NBO PAL2
% maxcore 2000
% output
    # printlevel mini
    print[ P_Basis ] 0
    print[ P_SCFInfo ] 1
    print[ P_SCFIterInfo ] 1
    print[ P_OrbEn ] 0
    print[ P_Cartesian ] 0
end
*xyz 0 1
 C        1.2360760000     0.3931800000     0.1139350000 
 N        2.4922700000    -0.0189520000     0.6975940000 
 C        2.6098530000     0.4394060000     2.0644190000 
 C        2.6914730000    -1.4455470000     0.6040030000 
 C        4.1338870000    -1.8820690000     0.8106180000 
 C        5.2036800000    -1.0291910000     0.1905130000 
 O        4.3832370000    -2.9017070000     1.4041760000 
 H        1.1487060000     1.4810300000     0.1609730000 
 H        0.3597680000    -0.0399440000     0.6281950000 
 H        1.1963450000     0.0951320000    -0.9360490000 
 H        2.5389050000     1.5286520000     2.0970980000 
 H        3.5779000000     0.1513860000     2.4816370000 
 H        1.8255170000     0.0218420000     2.7202680000 
 H        2.4255140000    -1.7681970000    -0.4106990000 
 H        2.0652070000    -2.0257950000     1.3023430000 
 H        5.0208590000    -0.9276400000    -0.8831560000 
 H        6.1787500000    -1.4802240000     0.3647820000 
 H        5.1699530000    -0.0168520000     0.5978500000 
*
