! RI PBE def2-SVP def2-SVP/J NBO PAL2
% maxcore 2000
% output
    # printlevel mini
    print[ P_Basis ] 0
    print[ P_SCFInfo ] 1
    print[ P_SCFIterInfo ] 1
    print[ P_OrbEn ] 0
    print[ P_Cartesian ] 0
end
*xyz 0 1
 C        0.6652440000     0.9210310000    -0.4690980000 
 N        1.8875080000     0.3239450000     0.0164810000 
 C        2.6271440000     1.2623160000     0.8291070000 
 C        1.6596780000    -0.9143190000     0.7337670000 
 C        1.1645420000    -2.0306210000    -0.1629020000 
 C        1.1938360000    -3.3843300000     0.4765050000 
 O        1.5809890000    -3.6144860000     1.5896710000 
 H        0.8970320000     1.8427650000    -1.0067770000 
 H       -0.0411120000     1.1700200000     0.3449020000 
 H        0.1568170000     0.2532640000    -1.1666630000 
 H        2.8475500000     2.1606220000     0.2479280000 
 H        3.5747110000     0.8183570000     1.1415530000 
 H        2.0783810000     1.5716200000     1.7374190000 
 H        0.9569410000    -0.7785870000     1.5767000000 
 H        2.6066280000    -1.2287850000     1.1790510000 
 H        1.7732350000    -2.0845050000    -1.0757150000 
 H        0.1373500000    -1.8708010000    -0.5136750000 
 H        0.8219450000    -4.2096060000    -0.1701440000 
*
