! RI PBE def2-SVP def2-SVP/J NBO PAL2
% maxcore 2000
% output
    # printlevel mini
    print[ P_Basis ] 0
    print[ P_SCFInfo ] 1
    print[ P_SCFIterInfo ] 1
    print[ P_OrbEn ] 0
    print[ P_Cartesian ] 0
end
*xyz 0 1
 C        1.0302380000     0.1428210000    -0.0280470000 
 N        2.4703050000     0.1449360000    -0.0375290000 
 C        3.2131080000     0.3472580000     1.0651310000 
 C        4.5650840000     0.3693800000     1.1677930000 
 C        5.5249060000     0.1672150000     0.0422960000 
 C        5.0987340000     0.6106990000     2.4875740000 
 O        6.2791330000     0.6640950000     2.7647230000 
 H        0.6665590000    -0.0414120000    -1.0382090000 
 H        0.6262250000     1.1048060000     0.3029590000 
 H        0.6308420000    -0.6436220000     0.6201850000 
 H        2.9410950000    -0.0124220000    -0.9099750000 
 H        2.6317860000     0.5103810000     1.9707260000 
 H        5.0326730000    -0.0090330000    -0.9167120000 
 H        6.1811070000    -0.6833430000     0.2443760000 
 H        6.1759270000     1.0381920000    -0.0693460000 
 H        4.3278880000     0.7527380000     3.2799650000 
*
