! RI PBE def2-SVP def2-SVP/J NBO PAL2
% maxcore 2000
% output
    # printlevel mini
    print[ P_Basis ] 0
    print[ P_SCFInfo ] 1
    print[ P_SCFIterInfo ] 1
    print[ P_OrbEn ] 0
    print[ P_Cartesian ] 0
end
*xyz 0 1
 C        1.0031500000     0.5410400000    -0.6459360000 
 N        2.3704280000     0.5788480000    -0.1973880000 
 C        2.8039610000    -0.0423270000     0.9167410000 
 C        4.0682750000    -0.0467070000     1.3922540000 
 C        4.4813720000    -0.7347240000     2.6013060000 
 C        3.4538450000    -1.5068080000     3.4052080000 
 O        5.6405930000    -0.6988500000     2.9760610000 
 H        0.9134370000     1.1181810000    -1.5654540000 
 H        0.3214170000     0.9789310000     0.0904020000 
 H        0.6736910000    -0.4808380000    -0.8602150000 
 H        3.0384070000     1.0950770000    -0.7418640000 
 H        2.0233940000    -0.5785800000     1.4503190000 
 H        4.8582390000     0.4848110000     0.8694390000 
 H        3.0008500000    -2.3040260000     2.8099450000 
 H        2.6502780000    -0.8533890000     3.7550990000 
 H        3.9538640000    -1.9467400000     4.2658830000 
*
