! RI PBE def2-SVP def2-SVP/J NBO PAL2
% maxcore 2000
% output
    # printlevel mini
    print[ P_Basis ] 0
    print[ P_SCFInfo ] 1
    print[ P_SCFIterInfo ] 1
    print[ P_OrbEn ] 0
    print[ P_Cartesian ] 0
end
*xyz 0 1
 C        3.4199130000    -1.0188930000    -0.7457650000 
 N        3.2347030000    -0.4847320000     0.5911410000 
 C        3.1811830000     0.9557040000     0.6311110000 
 C        2.5810410000     1.4564270000     1.9159950000 
 C        1.7507950000     2.4838960000     2.0156500000 
 C        4.5469490000     1.6304470000     0.5086000000 
 O        5.5867820000     1.0435620000     0.6206690000 
 H        3.5045960000    -2.1052780000    -0.6879500000 
 H        4.3073620000    -0.6352480000    -1.2694600000 
 H        2.5387820000    -0.7916410000    -1.3522280000 
 H        4.0039060000    -0.7900200000     1.1778830000 
 H        2.5674090000     1.3190050000    -0.2024110000 
 H        2.9062710000     0.9274400000     2.8089230000 
 H        1.4062180000     3.0257060000     1.1402090000 
 H        1.3739930000     2.8143950000     2.9763760000 
 H        4.5186090000     2.7305200000     0.3544360000 
*
