! RI PBE def2-SVP def2-SVP/J NBO PAL2
% maxcore 2000
% output
    # printlevel mini
    print[ P_Basis ] 0
    print[ P_SCFInfo ] 1
    print[ P_SCFIterInfo ] 1
    print[ P_OrbEn ] 0
    print[ P_Cartesian ] 0
end
*xyz 0 1
 C        3.2456630000     0.5898050000    -0.3931340000 
 N        2.9090990000    -0.2167380000     0.7628300000 
 C        3.0231240000    -1.6755190000     0.6363840000 
 C        2.2988250000    -2.2787510000     1.8328160000 
 C        2.4491850000    -2.2420740000    -0.6584020000 
 C        4.5217700000    -2.0041850000     0.7229770000 
 O        5.1232140000    -1.3643420000     1.8151330000 
 H        3.1639680000     1.6445210000    -0.1232030000 
 H        2.6133720000     0.4145630000    -1.2742770000 
 H        4.2830370000     0.4122490000    -0.6855400000 
 H        1.9894440000     0.0260000000     1.1056040000 
 H        1.2389040000    -2.0054240000     1.8228720000 
 H        2.7414650000    -1.9291580000     2.7668330000 
 H        2.3615100000    -3.3683210000     1.8107180000 
 H        1.3854810000    -2.0055720000    -0.7508100000 
 H        2.5518540000    -3.3301640000    -0.6746450000 
 H        2.9634630000    -1.8502330000    -1.5388270000 
 H        5.0132810000    -1.7170700000    -0.2201060000 
 H        4.6543260000    -3.0840280000     0.8393370000 
 H        4.6299260000    -0.5317690000     1.8980200000 
*
