! RI PBE def2-SVP def2-SVP/J NBO PAL2
% maxcore 2000
% output
    # printlevel mini
    print[ P_Basis ] 0
    print[ P_SCFInfo ] 1
    print[ P_SCFIterInfo ] 1
    print[ P_OrbEn ] 0
    print[ P_Cartesian ] 0
end
*xyz 0 1
 C        1.1879730000     0.4310760000    -0.2061970000 
 N        2.5480810000     0.5828540000    -0.6805260000 
 C        2.8913990000    -0.2649670000    -1.8144450000 
 C        2.1205120000     0.1554230000    -3.0556970000 
 C        4.3894570000    -0.1579140000    -2.0432340000 
 C        4.9896750000    -1.1596670000    -2.9815640000 
 O        4.4069200000    -2.0745540000    -3.4966400000 
 H        1.0751740000     0.9658790000     0.7385540000 
 H        0.8877180000    -0.6180390000    -0.0465560000 
 H        0.4838410000     0.8746470000    -0.9127390000 
 H        3.1839990000     0.3815680000     0.0812640000 
 H        2.6540160000    -1.3242920000    -1.6122070000 
 H        2.3093250000     1.2101240000    -3.2743670000 
 H        1.0457020000     0.0234610000    -2.9218460000 
 H        2.4196780000    -0.4503530000    -3.9114280000 
 H        4.9399750000    -0.2760650000    -1.0972100000 
 H        4.6593200000     0.8461100000    -2.3959760000 
 H        6.0755470000    -1.0099730000    -3.1733670000 
*
