! RI PBE def2-SVP def2-SVP/J NBO PAL2
% maxcore 2000
% output
    # printlevel mini
    print[ P_Basis ] 0
    print[ P_SCFInfo ] 1
    print[ P_SCFIterInfo ] 1
    print[ P_OrbEn ] 0
    print[ P_Cartesian ] 0
end
*xyz 0 1
 C        0.8962320000     0.1085310000    -0.1186650000 
 N        2.3416370000     0.0664750000    -0.1013770000 
 C        2.8796040000    -0.5464810000     1.0968260000 
 C        4.3683790000    -0.6121310000     1.0426290000 
 C        5.1842230000    -0.1358440000     1.9764010000 
 C        6.6719150000    -0.2213640000     1.9122970000 
 O        7.2883040000     1.0517080000     1.9901160000 
 H        0.5526980000     0.6281500000    -1.0150890000 
 H        0.4497060000     0.6034540000     0.7600130000 
 H        0.5023710000    -0.9110740000    -0.1570400000 
 H        2.7181190000     1.0017190000    -0.1946380000 
 H        2.4772450000    -1.5672290000     1.1473520000 
 H        2.5623010000    -0.0416050000     2.0263550000 
 H        4.7857800000    -1.0921560000     0.1583840000 
 H        4.7726590000     0.3638830000     2.8524610000 
 H        6.9764960000    -0.7591250000     1.0040900000 
 H        7.0595010000    -0.7799780000     2.7694630000 
 H        6.9228310000     1.5946370000     1.2863120000 
*
