! RI PBE def2-SVP def2-SVP/J NBO PAL2
% maxcore 2000
% output
    # printlevel mini
    print[ P_Basis ] 0
    print[ P_SCFInfo ] 1
    print[ P_SCFIterInfo ] 1
    print[ P_OrbEn ] 0
    print[ P_Cartesian ] 0
end
*xyz 0 1
 C        1.0679410000     0.6340280000     2.2611490000 
 N        2.5162440000     0.5981090000     2.2361550000 
 C        3.0746410000     0.9480560000     0.9372190000 
 C        4.5981200000     0.9975350000     0.9510740000 
 C        5.1284470000     1.2351180000    -0.4545550000 
 C        5.1188130000     2.0692100000     1.9054830000 
 O        4.7908410000     1.8399880000     3.2507850000 
 H        0.7053420000     0.2947880000     3.2329100000 
 H        0.6011600000     0.0144810000     1.4794600000 
 H        0.7266690000     1.6622420000     2.1179990000 
 H        2.8376940000    -0.3284970000     2.4930000000 
 H        2.6913030000     1.9411360000     0.6695380000 
 H        2.7305620000     0.2598580000     0.1457080000 
 H        4.9712950000     0.0282130000     1.3102340000 
 H        4.7909470000     2.2011940000    -0.8427780000 
 H        4.7857700000     0.4625710000    -1.1471050000 
 H        6.2205930000     1.2363650000    -0.4685790000 
 H        4.7416540000     3.0496050000     1.5647270000 
 H        6.2109590000     2.1110890000     1.8424630000 
 H        3.8570850000     1.5627210000     3.2500140000 
*
