! RI PBE def2-SVP def2-SVP/J NBO PAL2
% maxcore 2000
% output
    # printlevel mini
    print[ P_Basis ] 0
    print[ P_SCFInfo ] 1
    print[ P_SCFIterInfo ] 1
    print[ P_OrbEn ] 0
    print[ P_Cartesian ] 0
end
*xyz 0 1
 C        1.7705760000     1.2420680000    -0.9276310000 
 N        3.0592460000     0.8140410000    -0.4365130000 
 C        3.9466640000     0.3754270000    -1.4863260000 
 C        5.2688490000    -0.1460530000    -0.9336790000 
 C        5.9982380000     0.9209170000    -0.1316390000 
 C        6.1369500000    -0.6606090000    -2.0724250000 
 O        4.9018450000    -1.2332860000    -0.0802330000 
 H        1.1198300000     1.4958050000    -0.0883810000 
 H        1.2541980000     0.4896140000    -1.5483140000 
 H        1.8877660000     2.1432660000    -1.5371640000 
 H        2.9520730000     0.0530030000     0.2230400000 
 H        4.1537670000     1.2212790000    -2.1517340000 
 H        3.5031660000    -0.4218770000    -2.1103920000 
 H        6.9124150000     0.5082050000     0.3076430000 
 H        5.3568250000     1.3011370000     0.6630740000 
 H        6.2881650000     1.7584840000    -0.7706390000 
 H        7.0769060000    -1.0636170000    -1.6842610000 
 H        5.6214050000    -1.4567420000    -2.6132080000 
 H        6.3826670000     0.1387680000    -2.7760820000 
 H        5.6836490000    -1.5130290000     0.4031740000 
*
