! RI PBE def2-SVP def2-SVP/J NBO PAL2
% maxcore 2000
% output
    # printlevel mini
    print[ P_Basis ] 0
    print[ P_SCFInfo ] 1
    print[ P_SCFIterInfo ] 1
    print[ P_OrbEn ] 0
    print[ P_Cartesian ] 0
end
*xyz 0 1
 C        0.8802260000     0.1828710000     0.0966210000 
 N        2.3255970000     0.2354290000     0.0392030000 
 C        2.9482390000    -0.0833440000     1.3063990000 
 C        4.4606240000    -0.1356090000     1.1898780000 
 C        5.1058230000     1.2067160000     0.8533050000 
 C        5.0995470000    -0.7034240000     2.4286390000 
 O        4.5125360000    -1.1266600000     3.3859000000 
 H        0.4613860000     0.4828090000    -0.8659250000 
 H        0.4390130000     0.8210310000     0.8799880000 
 H        0.5604440000    -0.8444100000     0.2912150000 
 H        2.6133350000     1.1574180000    -0.2629830000 
 H        2.5870680000    -1.0646850000     1.6270400000 
 H        2.6711460000     0.6170550000     2.1145050000 
 H        4.7195150000    -0.8401120000     0.3843920000 
 H        4.8107830000     1.9733560000     1.5752800000 
 H        4.8181550000     1.5429610000    -0.1442680000 
 H        6.1966480000     1.1356480000     0.8652830000 
 H        6.2135160000    -0.7120610000     2.4030170000 
*
