! RI PBE def2-SVP def2-SVP/J NBO PAL2
% maxcore 2000
% output
    # printlevel mini
    print[ P_Basis ] 0
    print[ P_SCFInfo ] 1
    print[ P_SCFIterInfo ] 1
    print[ P_OrbEn ] 0
    print[ P_Cartesian ] 0
end
*xyz 0 1
 C        1.1449120000     2.7582870000    -0.7353010000 
 N        2.5916870000     2.7109000000    -0.7897930000 
 C        3.1130650000     1.3684730000    -1.0097360000 
 C        4.6294630000     1.3659410000    -1.1240380000 
 C        5.1926990000     2.1740060000    -2.2951610000 
 C        4.7627020000     1.6402180000    -3.6534720000 
 O        4.8877370000     3.5474950000    -2.1691270000 
 H        0.8150640000     3.7707640000    -0.4966840000 
 H        0.7118470000     2.0671390000     0.0047880000 
 H        0.7345020000     2.4963150000    -1.7138170000 
 H        2.9778600000     3.0753040000     0.0741670000 
 H        2.6644240000     0.9897230000    -1.9341520000 
 H        2.8004400000     0.6725450000    -0.2127600000 
 H        4.9704040000     0.3287380000    -1.2062470000 
 H        5.0614050000     1.7628320000    -0.1976060000 
 H        6.2856260000     2.1074390000    -2.2387250000 
 H        3.6800470000     1.7139720000    -3.7861100000 
 H        5.0550820000     0.5940790000    -3.7838270000 
 H        5.2320320000     2.2309320000    -4.4417840000 
 H        3.9527120000     3.5895100000    -1.9012970000 
*
