! RI PBE def2-SVP def2-SVP/J NBO PAL2
% maxcore 2000
% output
    # printlevel mini
    print[ P_Basis ] 0
    print[ P_SCFInfo ] 1
    print[ P_SCFIterInfo ] 1
    print[ P_OrbEn ] 0
    print[ P_Cartesian ] 0
end
*xyz 0 1
 C        0.7439730000     0.3616870000    -1.1349840000 
 N        1.9712390000     1.0912310000    -0.9866400000 
 C        3.0331040000     0.5604010000    -1.4331350000 
 C        4.3196950000     1.2064960000    -1.3524770000 
 C        5.4299050000     0.6173640000    -1.8194170000 
 N        6.7089240000     1.1040590000    -1.6666980000 
 O        7.5519320000     0.7722000000    -2.7405190000 
 H        0.2935970000     0.1975600000    -0.1509360000 
 H        0.8643030000    -0.6128240000    -1.6330810000 
 H        0.0286980000     0.9603180000    -1.7079070000 
 H        3.0183850000    -0.4314850000    -1.9165060000 
 H        4.3516180000     2.1852710000    -0.8830440000 
 H        5.3940490000    -0.3542850000    -2.3022540000 
 H        6.7536830000     2.1065480000    -1.5274230000 
 H        8.2823940000     0.3039490000    -2.3239810000 
*
