! RI PBE def2-SVP def2-SVP/J NBO PAL2
% maxcore 2000
% output
    # printlevel mini
    print[ P_Basis ] 0
    print[ P_SCFInfo ] 1
    print[ P_SCFIterInfo ] 1
    print[ P_OrbEn ] 0
    print[ P_Cartesian ] 0
end
*xyz 0 1
 C        1.3194530000    -0.3598380000     0.1565460000 
 N        2.7011530000     0.0076240000    -0.0283930000 
 C        3.2045520000     0.1476270000    -1.3028230000 
 C        2.5314990000    -0.0256010000    -2.4415980000 
 C        3.5174560000     0.2165180000     1.0509090000 
 N        3.1134280000     0.1007530000     2.2512300000 
 O        4.1595950000     0.3728860000     3.1361210000 
 H        0.6643460000     0.3856190000    -0.3037370000 
 H        1.1118920000    -0.4163590000     1.2216540000 
 H        1.1199710000    -1.3310720000    -0.3057890000 
 H        4.2532160000     0.4264270000    -1.3253120000 
 H        1.4867340000    -0.3034600000    -2.4749050000 
 H        3.0432140000     0.1153860000    -3.3826260000 
 H        4.5452590000     0.4909420000     0.8177490000 
 H        3.7436330000     0.2555580000     3.9932840000 
*
