! RI PBE def2-SVP def2-SVP/J NBO PAL2
% maxcore 2000
% output
    # printlevel mini
    print[ P_Basis ] 0
    print[ P_SCFInfo ] 1
    print[ P_SCFIterInfo ] 1
    print[ P_OrbEn ] 0
    print[ P_Cartesian ] 0
end
*xyz 0 1
 C        1.1334560000    -1.1968100000    -0.4814930000 
 N        2.3796840000    -0.4915370000    -0.2957470000 
 C        2.9296290000    -0.4348210000     0.9720190000 
 C        2.4990260000    -1.1054720000     2.0408610000 
 C        2.9432160000     0.1319620000    -1.3995510000 
 N        4.2128690000     0.6304110000    -1.2220630000 
 O        2.3462640000     0.2589540000    -2.4481960000 
 H        1.2618190000    -2.2642710000    -0.2786140000 
 H        0.8145790000    -1.0552240000    -1.5101410000 
 H        0.3730860000    -0.8017280000     0.1974230000 
 H        3.7471300000     0.2676270000     1.0757910000 
 H        1.6710200000    -1.8006030000     2.0103700000 
 H        2.9879290000    -0.9504170000     2.9922770000 
 H        4.8505930000     0.1395200000    -0.6191730000 
 H        4.6125100000     0.9572110000    -2.0859730000 
*
