! RI PBE def2-SVP def2-SVP/J NBO PAL2
% maxcore 2000
% output
    # printlevel mini
    print[ P_Basis ] 0
    print[ P_SCFInfo ] 1
    print[ P_SCFIterInfo ] 1
    print[ P_OrbEn ] 0
    print[ P_Cartesian ] 0
end
*xyz 0 1
 C        1.3103490000    -0.5241080000    -0.2180910000 
 N        2.3796960000     0.4010930000    -0.5253240000 
 C        2.3229260000     0.8239380000    -1.9103070000 
 C        2.3980200000     1.5364000000     0.3726170000 
 C        3.7513610000     2.2265000000     0.4795230000 
 N        4.7980330000     1.4387490000     0.1593550000 
 O        3.8505020000     3.3724810000     0.8648130000 
 H        1.3702510000    -1.3881910000    -0.8836030000 
 H        0.3089870000    -0.0754200000    -0.3353530000 
 H        1.4074040000    -0.8792370000     0.8098140000 
 H        2.4063050000    -0.0448630000    -2.5667900000 
 H        3.1518370000     1.4991880000    -2.1312970000 
 H        1.3821540000     1.3482490000    -2.1501340000 
 H        2.1568680000     1.1940000000     1.3839740000 
 H        1.6596500000     2.3109380000     0.1150770000 
 H        4.6170470000     0.5017820000    -0.1610820000 
 H        5.7310980000     1.8029900000     0.2314080000 
*
