! RI PBE def2-SVP def2-SVP/J NBO PAL2
% maxcore 2000
% output
    # printlevel mini
    print[ P_Basis ] 0
    print[ P_SCFInfo ] 1
    print[ P_SCFIterInfo ] 1
    print[ P_OrbEn ] 0
    print[ P_Cartesian ] 0
end
*xyz 0 1
 C        1.1808400000    -0.4856650000    -0.1731320000 
 N        2.6086670000    -0.6741590000    -0.0175930000 
 C        3.0801460000    -0.6293760000     1.3604060000 
 C        2.5264850000    -1.7966410000     2.1683800000 
 C        4.5727950000    -0.6952060000     1.3357280000 
 N        5.2524140000     0.2697240000     1.7902510000 
 O        6.6129980000     0.0354690000     1.6955970000 
 H        0.9509400000    -0.3616490000    -1.2327360000 
 H        0.7855950000     0.3894000000     0.3691950000 
 H        0.6371340000    -1.3669610000     0.1729820000 
 H        3.0980440000     0.0391200000    -0.5434620000 
 H        2.7997260000     0.3110660000     1.8639840000 
 H        2.7822380000    -2.7456300000     1.6904720000 
 H        1.4401790000    -1.7387880000     2.2550430000 
 H        2.9417050000    -1.7862880000     3.1777200000 
 H        5.0533900000    -1.5808820000     0.9143100000 
 H        6.9968150000     0.8330750000     2.0701450000 
*
