! RI PBE def2-SVP def2-SVP/J NBO PAL2
% maxcore 2000
% output
    # printlevel mini
    print[ P_Basis ] 0
    print[ P_SCFInfo ] 1
    print[ P_SCFIterInfo ] 1
    print[ P_OrbEn ] 0
    print[ P_Cartesian ] 0
end
*xyz 0 1
 C        1.4315010000    -0.5818740000     0.1066540000 
 N        2.8112870000    -0.4388170000     0.5319110000 
 C        3.0968630000     0.7700840000     1.2930860000 
 C        2.2311040000     0.8771370000     2.5415980000 
 C        4.5601960000     0.8071000000     1.7306280000 
 N        5.1658220000    -0.3986030000     1.7752630000 
 O        5.1031440000     1.8495420000     2.0329270000 
 H        1.3589350000    -1.4204220000    -0.5879880000 
 H        1.0267950000     0.3128720000    -0.3920280000 
 H        0.7907300000    -0.8100930000     0.9595910000 
 H        3.4026390000    -0.4395720000    -0.2910610000 
 H        2.9501950000     1.6846360000     0.6973180000 
 H        2.3105810000    -0.0319240000     3.1434600000 
 H        1.1817220000     1.0352960000     2.2882300000 
 H        2.5659350000     1.7260170000     3.1384590000 
 H        4.6239440000    -1.2232670000     1.5753680000 
 H        6.1028870000    -0.4602220000     2.1324720000 
*
