! RI PBE def2-SVP def2-SVP/J NBO PAL2
% maxcore 2000
% output
    # printlevel mini
    print[ P_Basis ] 0
    print[ P_SCFInfo ] 1
    print[ P_SCFIterInfo ] 1
    print[ P_OrbEn ] 0
    print[ P_Cartesian ] 0
end
*xyz 0 1
 C        1.2297300000    -0.0745440000     0.0681030000 
 N        2.6727860000     0.0254790000     0.0905990000 
 C        3.2064080000     0.7748010000    -1.0297710000 
 C        4.6889410000     0.9484100000    -0.9024340000 
 C        5.2488080000     1.6821100000     0.2693090000 
 N        5.3855350000     0.4452770000    -1.8410180000 
 O        6.7429170000     0.6723380000    -1.6605850000 
 H        0.8909020000    -0.6962950000     0.8988700000 
 H        0.8230270000    -0.4946740000    -0.8664610000 
 H        0.7929330000     0.9194050000     0.2000780000 
 H        3.0832820000    -0.9003400000     0.0933480000 
 H        2.7371480000     1.7675760000    -1.0141480000 
 H        2.9869970000     0.3266710000    -2.0106340000 
 H        4.4788600000     1.8249540000     1.0259340000 
 H        5.6362080000     2.6555170000    -0.0467040000 
 H        6.0885170000     1.1361490000     0.7027830000 
 H        7.1317220000     0.2345550000    -2.4222690000 
*
