! RI PBE def2-SVP def2-SVP/J NBO PAL2
% maxcore 2000
% output
    # printlevel mini
    print[ P_Basis ] 0
    print[ P_SCFInfo ] 1
    print[ P_SCFIterInfo ] 1
    print[ P_OrbEn ] 0
    print[ P_Cartesian ] 0
end
*xyz 0 1
 C        1.1848340000     0.2308780000     0.3244910000 
 N        2.6116650000     0.0859310000     0.1384450000 
 C        2.9560860000    -0.6538330000    -1.0549880000 
 C        4.4664480000    -0.7983530000    -1.1862220000 
 C        4.8643220000    -1.4520550000    -2.4608520000 
 N        5.4858540000    -2.5543570000    -2.4459840000 
 O        5.7660610000    -3.0058940000    -3.7251140000 
 H        0.9851680000     0.7441220000     1.2670880000 
 H        0.6324830000    -0.7237110000     0.3266600000 
 H        0.7728050000     0.8470050000    -0.4797180000 
 H        3.0181020000    -0.3699630000     0.9464960000 
 H        2.5641810000    -0.1019100000    -1.9179700000 
 H        2.4904180000    -1.6550220000    -1.0902240000 
 H        4.8673920000    -1.3840850000    -0.3541920000 
 H        4.9100510000     0.2022540000    -1.1322080000 
 H        4.6098670000    -0.9781000000    -3.4123720000 
 H        6.2337740000    -3.8301080000    -3.5657370000 
*
