! RI PBE def2-SVP def2-SVP/J NBO PAL2
% maxcore 2000
% output
    # printlevel mini
    print[ P_Basis ] 0
    print[ P_SCFInfo ] 1
    print[ P_SCFIterInfo ] 1
    print[ P_OrbEn ] 0
    print[ P_Cartesian ] 0
end
*xyz 0 1
 C        0.7054020000    -1.2928740000    -2.3401900000 
 N        2.0678650000    -0.8155640000    -2.4025990000 
 C        2.7912970000    -0.9921300000    -1.1600240000 
 C        4.2101120000    -0.4609920000    -1.2502810000 
 C        5.0589780000    -1.1953300000    -2.2629730000 
 O        6.3538470000    -0.6471240000    -2.2497210000 
 C        7.2012590000    -1.2588470000    -3.1789990000 
 H        0.1923300000    -1.0770950000    -3.2794390000 
 H        0.1150320000    -0.8578090000    -1.5156540000 
 H        0.7039170000    -2.3784430000    -2.2058790000 
 H        2.0772020000     0.1649920000    -2.6575370000 
 H        2.8141740000    -2.0663270000    -0.9374360000 
 H        2.2797960000    -0.5140890000    -0.3051920000 
 H        4.6872540000    -0.5355730000    -0.2686680000 
 H        4.1948470000     0.6049080000    -1.5063470000 
 H        4.6165420000    -1.1153350000    -3.2653100000 
 H        5.0999710000    -2.2686340000    -2.0126040000 
 H        8.1766230000    -0.7761940000    -3.1071190000 
 H        6.8242480000    -1.1475930000    -4.2058390000 
 H        7.3210150000    -2.3324570000    -2.9729810000 
*
