! RI PBE def2-SVP def2-SVP/J NBO PAL2
% maxcore 2000
% output
    # printlevel mini
    print[ P_Basis ] 0
    print[ P_SCFInfo ] 1
    print[ P_SCFIterInfo ] 1
    print[ P_OrbEn ] 0
    print[ P_Cartesian ] 0
end
*xyz 0 1
 C        0.1460080000    -1.6560230000    -0.8560560000 
 N        0.4806870000    -2.6055420000     0.1810140000 
 C        1.8921890000    -2.8708880000     0.4092880000 
 C        2.6143800000    -3.5428420000    -0.7597750000 
 C        2.6434690000    -1.6139300000     0.8075720000 
 O        2.0882140000    -1.0479030000     1.9600110000 
 C        2.7648830000     0.1077340000     2.3621050000 
 H        0.5954180000    -1.8533540000    -1.8426420000 
 H        0.4367250000    -0.6478470000    -0.5505010000 
 H       -0.9380930000    -1.6467350000    -0.9841590000 
 H        0.0001570000    -3.4805970000     0.0232130000 
 H        1.9338650000    -3.5457800000     1.2721460000 
 H        2.6486620000    -2.8967110000    -1.6408710000 
 H        3.6439590000    -3.7989580000    -0.4958440000 
 H        2.1043470000    -4.4671920000    -1.0417590000 
 H        2.6365040000    -0.8848080000    -0.0196100000 
 H        3.6982990000    -1.8798510000     0.9820490000 
 H        2.2717080000     0.4844540000     3.2586420000 
 H        2.7335000000     0.8868930000     1.5864620000 
 H        3.8195280000    -0.0988020000     2.5969060000 
*
