! RI PBE def2-SVP def2-SVP/J NBO PAL2
% maxcore 2000
% output
    # printlevel mini
    print[ P_Basis ] 0
    print[ P_SCFInfo ] 1
    print[ P_SCFIterInfo ] 1
    print[ P_OrbEn ] 0
    print[ P_Cartesian ] 0
end
*xyz 0 1
 C        1.1298050000    -0.5214100000    -0.6015510000 
 N        2.4869160000    -0.3000040000    -0.1565890000 
 C        2.6219640000     0.8624370000     0.7017170000 
 C        4.0383920000     1.0646860000     1.1216760000 
 C        4.7058940000     2.1799630000     0.8308250000 
 O        5.9748190000     2.4988630000     1.1452080000 
 C        6.7057520000     1.5377300000     1.8684790000 
 H        1.0977930000    -1.3713000000    -1.2861010000 
 H        0.6746870000     0.3470630000    -1.1078170000 
 H        0.4987680000    -0.7666310000     0.2577450000 
 H        3.1057320000    -0.1958410000    -0.9512640000 
 H        1.9916890000     0.6864450000     1.5834430000 
 H        2.2394290000     1.7875260000     0.2323800000 
 H        4.5059520000     0.2491530000     1.6620880000 
 H        4.2394270000     2.9904620000     0.2784690000 
 H        7.6949560000     1.9606810000     2.0353340000 
 H        6.7969250000     0.6036610000     1.3033390000 
 H        6.2303310000     1.3244230000     2.8322300000 
*
