! RI PBE def2-SVP def2-SVP/J NBO PAL2
% maxcore 2000
% output
    # printlevel mini
    print[ P_Basis ] 0
    print[ P_SCFInfo ] 1
    print[ P_SCFIterInfo ] 1
    print[ P_OrbEn ] 0
    print[ P_Cartesian ] 0
end
*xyz 0 1
 C        0.9463740000     0.8613700000     0.0900410000 
 N        2.2675670000     0.3045450000     0.2742550000 
 C        2.9231910000    -0.0023020000    -0.9718630000 
 C        4.3147780000    -0.5326760000    -0.7962760000 
 C        5.0048270000    -0.4953830000     0.3422520000 
 O        4.7484090000    -1.0435370000    -1.9714880000 
 C        6.0630020000    -1.5408750000    -2.0088810000 
 H        0.4726740000     1.0132750000     1.0616060000 
 H        0.2772680000     0.2381900000    -0.5267910000 
 H        1.0251500000     1.8384710000    -0.3949110000 
 H        2.2179610000    -0.5325600000     0.8417400000 
 H        2.9789780000     0.9162790000    -1.5697560000 
 H        2.3699260000    -0.7284790000    -1.5940030000 
 H        4.5535060000    -0.0267890000     1.2046180000 
 H        6.0064400000    -0.8893360000     0.4366760000 
 H        6.2366220000    -1.8805040000    -3.0288070000 
 H        6.1877910000    -2.3821610000    -1.3184080000 
 H        6.7882160000    -0.7609380000    -1.7529040000 
*
