! RI PBE def2-SVP def2-SVP/J NBO PAL2
% maxcore 2000
% output
    # printlevel mini
    print[ P_Basis ] 0
    print[ P_SCFInfo ] 1
    print[ P_SCFIterInfo ] 1
    print[ P_OrbEn ] 0
    print[ P_Cartesian ] 0
end
*xyz 0 1
 C        0.9680880000    -0.3035640000    -0.1424180000 
 N        2.3503250000     0.1169980000    -0.1791060000 
 C        2.7605360000     0.6382900000    -1.4631480000 
 C        2.7691400000     0.8952750000     0.9442700000 
 C        2.1579690000     2.2773210000     1.1002430000 
 O        2.6410570000     2.8935830000     2.1948930000 
 O        1.3524910000     2.7884890000     0.3718830000 
 H        0.8030410000    -1.0562370000    -0.9176000000 
 H        0.2520240000     0.5156610000    -0.2999200000 
 H        0.7529710000    -0.7697870000     0.8229270000 
 H        2.5837900000    -0.1205180000    -2.2297220000 
 H        3.8333540000     0.8488240000    -1.4468000000 
 H        2.2308680000     1.5554580000    -1.7579960000 
 H        3.8563430000     1.0318590000     0.9188510000 
 H        2.5613490000     0.3515310000     1.8729710000 
 H        2.2156740000     3.7618270000     2.2367610000 
*
