! RI PBE def2-SVP def2-SVP/J NBO PAL2
% maxcore 2000
% output
    # printlevel mini
    print[ P_Basis ] 0
    print[ P_SCFInfo ] 1
    print[ P_SCFIterInfo ] 1
    print[ P_OrbEn ] 0
    print[ P_Cartesian ] 0
end
*xyz 0 1
 C        2.7523730000     0.1374830000    -1.3525980000 
 N        2.4855680000    -0.0273260000     0.0626240000 
 C        3.0152670000     1.0262650000     0.8878160000 
 C        2.5202760000     0.8869770000     2.3237950000 
 C        4.5383460000     1.0558500000     0.9114220000 
 O        5.0237390000     2.2799100000     1.1762210000 
 O        5.2451210000     0.0981950000     0.7480930000 
 H        2.3327170000    -0.7088720000    -1.8989590000 
 H        3.8202400000     0.2108750000    -1.6064050000 
 H        2.2522220000     1.0408120000    -1.7127860000 
 H        2.8641230000    -0.9123620000     0.3804870000 
 H        2.6733990000     1.9860490000     0.4868310000 
 H        2.8548870000    -0.0625220000     2.7497190000 
 H        1.4302210000     0.9017000000     2.3301970000 
 H        2.8941740000     1.6968690000     2.9522040000 
 H        5.9874270000     2.1968870000     1.2182310000 
*
