! RI PBE def2-SVP def2-SVP/J NBO PAL2
% maxcore 2000
% output
    # printlevel mini
    print[ P_Basis ] 0
    print[ P_SCFInfo ] 1
    print[ P_SCFIterInfo ] 1
    print[ P_OrbEn ] 0
    print[ P_Cartesian ] 0
end
*xyz 0 1
 C        1.1042720000     0.3610270000     0.2706320000 
 N        2.5205650000     0.1106420000     0.3015250000 
 C        3.0097790000    -0.7899880000     1.0655180000 
 C        2.2564650000    -1.6492000000     2.0323350000 
 N        4.3595440000    -1.0231580000     0.9431930000 
 C        5.1943940000    -1.2720890000     2.0900320000 
 O        4.9813260000    -0.1040210000     0.1037670000 
 H        0.9082960000     1.2133360000    -0.3808670000 
 H        0.6880330000     0.5983180000     1.2576090000 
 H        0.5411130000    -0.4909940000    -0.1321350000 
 H        1.2319030000    -1.7868290000     1.6878470000 
 H        2.2140580000    -1.1780110000     3.0188170000 
 H        2.7162990000    -2.6307050000     2.1405170000 
 H        4.7421510000    -2.0396890000     2.7156270000 
 H        5.3545930000    -0.3617580000     2.6816330000 
 H        6.1603160000    -1.6362720000     1.7401140000 
 H        4.1950020000     0.4160030000    -0.2004460000 
*
