! RI PBE def2-SVP def2-SVP/J NBO PAL2
% maxcore 2000
% output
    # printlevel mini
    print[ P_Basis ] 0
    print[ P_SCFInfo ] 1
    print[ P_SCFIterInfo ] 1
    print[ P_OrbEn ] 0
    print[ P_Cartesian ] 0
end
*xyz 0 1
 C        1.0721750000     0.0476430000    -0.2290270000 
 N        2.5005860000    -0.0521860000    -0.0688470000 
 C        3.2482840000    -0.5653020000    -1.1926500000 
 C        3.0974690000     0.6710860000     0.9208220000 
 N        2.5161760000     1.3758250000     1.8148270000 
 C        4.6117790000     0.6375160000     1.0188090000 
 O        5.0465090000     1.3717780000     2.1124340000 
 H        0.7449170000    -0.6856810000    -0.9656640000 
 H        0.7542130000     1.0423520000    -0.5691420000 
 H        0.5615600000    -0.1748200000     0.7115310000 
 H        2.7556330000    -1.4608670000    -1.5764980000 
 H        4.2538140000    -0.8511440000    -0.8908400000 
 H        3.3268760000     0.1601620000    -2.0133750000 
 H        1.5078960000     1.4174580000     1.7316800000 
 H        5.0399800000     1.0405050000     0.0887460000 
 H        4.9440900000    -0.4081300000     1.0996010000 
 H        4.2200220000     1.7222050000     2.5017920000 
*
