! RI PBE def2-SVP def2-SVP/J NBO PAL2
% maxcore 2000
% output
    # printlevel mini
    print[ P_Basis ] 0
    print[ P_SCFInfo ] 1
    print[ P_SCFIterInfo ] 1
    print[ P_OrbEn ] 0
    print[ P_Cartesian ] 0
end
*xyz 0 1
 C        0.9539960000     0.1019670000     0.2759920000 
 N        2.3861130000    -0.0936630000     0.1165570000 
 C        3.1515750000     0.8861250000    -0.6131760000 
 C        3.0666100000    -1.1572550000     0.6174830000 
 N        4.3244790000    -1.4016350000     0.5200880000 
 C        2.3552420000    -2.2348000000     1.3950610000 
 O        1.1848730000    -2.2902940000     1.6539920000 
 H        0.6857340000     1.0309110000    -0.2249250000 
 H        0.6647040000     0.1794760000     1.3247840000 
 H        0.3769590000    -0.7093490000    -0.1694840000 
 H        2.4911740000     1.6791350000    -0.9569840000 
 H        3.6392130000     0.4446670000    -1.4909480000 
 H        3.9293590000     1.3387800000     0.0139650000 
 H        4.8293700000    -0.6896560000    -0.0004740000 
 H        3.0778990000    -3.0079080000     1.7147900000 
*
