! RI PBE def2-SVP def2-SVP/J NBO PAL2
% maxcore 2000
% output
    # printlevel mini
    print[ P_Basis ] 0
    print[ P_SCFInfo ] 1
    print[ P_SCFIterInfo ] 1
    print[ P_OrbEn ] 0
    print[ P_Cartesian ] 0
end
*xyz 0 1
 C        1.2939580000     0.1819910000     0.3431800000 
 N        2.6719960000    -0.1834230000     0.1366860000 
 C        3.4680070000     0.5909640000    -0.7797030000 
 C        3.5887520000     1.9885930000    -0.3654590000 
 N        3.6560820000     3.0892200000    -0.0424510000 
 C        3.2514250000    -1.2374040000     0.7695850000 
 O        4.3977720000    -1.5888750000     0.6268580000 
 H        0.7245940000     0.1134490000    -0.5892140000 
 H        1.2112910000     1.2020710000     0.7288260000 
 H        0.8503550000    -0.4995880000     1.0693170000 
 H        3.0404560000     0.5677250000    -1.7888200000 
 H        4.4598220000     0.1322970000    -0.8144690000 
 H        2.5425910000    -1.7545100000     1.4405660000 
*
