! RI PBE def2-SVP def2-SVP/J NBO PAL2
% maxcore 2000
% output
    # printlevel mini
    print[ P_Basis ] 0
    print[ P_SCFInfo ] 1
    print[ P_SCFIterInfo ] 1
    print[ P_OrbEn ] 0
    print[ P_Cartesian ] 0
end
*xyz 0 1
 C        1.0408590000    -1.0232970000     1.0124830000 
 N        1.5827080000     0.0856960000     0.2666840000 
 C        2.6592110000     0.8680690000     0.8497170000 
 C        2.1962020000     2.1990230000     1.4177350000 
 N        1.1738520000     2.0079810000     2.4394840000 
 C        1.2044500000     0.3336910000    -1.0057030000 
 O        1.6613850000     1.2073140000    -1.7111730000 
 H        1.7962660000    -1.8003540000     1.1735640000 
 H        0.2112320000    -1.4623250000     0.4557570000 
 H        0.6766560000    -0.6936840000     1.9875690000 
 H        3.4062840000     1.0508010000     0.0731070000 
 H        3.1100380000     0.2679010000     1.6435920000 
 H        1.8774370000     2.8420840000     0.5875450000 
 H        3.0631290000     2.6774980000     1.8827690000 
 H        0.2827320000     1.8082870000     2.0008690000 
 H        1.0428290000     2.8602080000     2.9689900000 
 H        0.4112410000    -0.3563920000    -1.3521180000 
*
