! RI PBE def2-SVP def2-SVP/J NBO PAL2
% maxcore 2000
% output
    # printlevel mini
    print[ P_Basis ] 0
    print[ P_SCFInfo ] 1
    print[ P_SCFIterInfo ] 1
    print[ P_OrbEn ] 0
    print[ P_Cartesian ] 0
end
*xyz 0 1
 C        3.0672490000     0.7919250000    -0.3156150000 
 N        3.1275480000    -0.4521200000    -1.0559080000 
 C        3.5267530000    -1.6049790000    -0.2531360000 
 C        2.7713540000    -2.8460510000    -0.7193870000 
 N        3.0592850000    -3.1182980000    -2.1279070000 
 C        5.0406640000    -1.8215790000    -0.2763590000 
 O        5.5371520000    -1.9346840000    -1.5896510000 
 H        2.8624310000     1.6153900000    -1.0028690000 
 H        3.9876100000     1.0369510000     0.2382470000 
 H        2.2449500000     0.7548000000     0.4041490000 
 H        3.8044080000    -0.3600140000    -1.8061350000 
 H        3.2285770000    -1.4204320000     0.7858140000 
 H        1.7003990000    -2.6977400000    -0.5265300000 
 H        3.0994970000    -3.7081770000    -0.1302170000 
 H        2.6209790000    -2.3993400000    -2.6937150000 
 H        2.6651110000    -4.0052080000    -2.4132780000 
 H        5.2923920000    -2.7088490000     0.3251200000 
 H        5.5455900000    -0.9657730000     0.1830080000 
 H        4.9364620000    -2.5548120000    -2.0435310000 
*
