! RI PBE def2-SVP def2-SVP/J NBO PAL2
% maxcore 2000
% output
    # printlevel mini
    print[ P_Basis ] 0
    print[ P_SCFInfo ] 1
    print[ P_SCFIterInfo ] 1
    print[ P_OrbEn ] 0
    print[ P_Cartesian ] 0
end
*xyz 0 1
 C        1.1033590000     0.3552190000     0.2956940000 
 N        2.5106960000     0.0408740000     0.1646900000 
 C        2.8450450000    -0.5183520000    -1.1285420000 
 C        4.3422950000    -0.7257080000    -1.2693710000 
 N        4.8938040000    -1.6187830000    -0.2709430000 
 C        4.9688970000    -2.9556370000    -0.4476360000 
 O        4.5595640000    -3.5520290000    -1.4168980000 
 H        0.8951170000     0.7014360000     1.3099160000 
 H        0.4338340000    -0.4921590000     0.0750490000 
 H        0.8443300000     1.1670890000    -0.3894500000 
 H        2.7677550000    -0.6277780000     0.8810450000 
 H        2.5278400000     0.1906820000    -1.9010730000 
 H        2.3259820000    -1.4688470000    -1.3349160000 
 H        4.8529950000     0.2352980000    -1.1792460000 
 H        4.5602760000    -1.1491560000    -2.2518230000 
 H        5.2995170000    -1.2298860000     0.5624380000 
 H        5.4572710000    -3.4655650000     0.4049580000 
*
