! RI PBE def2-SVP def2-SVP/J NBO PAL2
% maxcore 2000
% output
    # printlevel mini
    print[ P_Basis ] 0
    print[ P_SCFInfo ] 1
    print[ P_SCFIterInfo ] 1
    print[ P_OrbEn ] 0
    print[ P_Cartesian ] 0
end
*xyz 0 1
 C        2.5874810000     0.3549140000     1.1005060000 
 N        1.8820620000    -0.2895450000     0.0298870000 
 C        2.4846200000    -1.1825300000    -0.8005420000 
 C        1.6512180000    -1.7907760000    -1.8802560000 
 N        3.7262200000    -1.4471160000    -0.6069940000 
 O        4.1786340000    -2.3798840000    -1.5473590000 
 C        5.5353160000    -2.6350570000    -1.2943840000 
 H        1.9045330000     1.0226040000     1.6253690000 
 H        3.4351180000     0.9354710000     0.7226350000 
 H        2.9860130000    -0.3780390000     1.8092170000 
 H        0.9149170000    -0.0852100000    -0.1228720000 
 H        0.6264130000    -1.4180660000    -1.8531000000 
 H        1.6395670000    -2.8770030000    -1.7766420000 
 H        2.0858690000    -1.5711340000    -2.8567800000 
 H        5.8513570000    -3.3626410000    -2.0434890000 
 H        5.6809930000    -3.0518700000    -0.2919100000 
 H        6.1355480000    -1.7237580000    -1.3900880000 
*
