! RI PBE def2-SVP def2-SVP/J NBO PAL2
% maxcore 2000
% output
    # printlevel mini
    print[ P_Basis ] 0
    print[ P_SCFInfo ] 1
    print[ P_SCFIterInfo ] 1
    print[ P_OrbEn ] 0
    print[ P_Cartesian ] 0
end
*xyz 0 1
 C        1.3850150000    -0.5068210000    -0.3412460000 
 N        2.7873660000    -0.2574010000    -0.0886250000 
 C        3.0210970000     0.9611500000     0.6602640000 
 C        4.4686720000     1.1085320000     0.9745470000 
 N        5.0924410000     2.1381820000     0.5797180000 
 O        6.4151030000     2.1185720000     0.9584290000 
 C        7.0564960000     3.2811150000     0.4809420000 
 H        1.2759530000    -1.4036640000    -0.9537420000 
 H        0.8647040000     0.3229110000    -0.8474380000 
 H        0.8706060000    -0.6900680000     0.6062860000 
 H        3.2953390000    -0.2122580000    -0.9633390000 
 H        2.4633290000     0.8804390000     1.6024220000 
 H        2.6704980000     1.8748140000     0.1550110000 
 H        4.9759250000     0.3156260000     1.5266740000 
 H        8.0908980000     3.2086580000     0.8166420000 
 H        6.5962160000     4.1825870000     0.8950800000 
 H        7.0258510000     3.3278350000    -0.6114140000 
*
