! RI PBE def2-SVP def2-SVP/J NBO PAL2
% maxcore 2000
% output
    # printlevel mini
    print[ P_Basis ] 0
    print[ P_SCFInfo ] 1
    print[ P_SCFIterInfo ] 1
    print[ P_OrbEn ] 0
    print[ P_Cartesian ] 0
end
*xyz 0 1
 C        1.0069550000    -0.0901470000    -0.0217840000 
 N        2.4548700000    -0.0592370000     0.0076520000 
 C        3.2427020000    -0.9123370000    -0.8570430000 
 C        3.1455830000     0.7586980000     0.8349820000 
 O        4.3622920000     0.7976510000     0.8729290000 
 C        2.3388910000     1.6101290000     1.6980570000 
 C        1.7362420000     2.3395230000     2.4372280000 
 H        0.6900180000    -0.8218990000    -0.7625300000 
 H        0.5874740000     0.8800650000    -0.2991330000 
 H        0.5890720000    -0.3803970000     0.9453410000 
 H        2.5737280000    -1.5157100000    -1.4674530000 
 H        3.8888060000    -1.5700920000    -0.2706860000 
 H        3.8876120000    -0.3170800000    -1.5079340000 
 H        1.2126730000     2.9910140000     3.0973740000 
*
