! RI PBE def2-SVP def2-SVP/J NBO PAL2
% maxcore 2000
% output
    # printlevel mini
    print[ P_Basis ] 0
    print[ P_SCFInfo ] 1
    print[ P_SCFIterInfo ] 1
    print[ P_OrbEn ] 0
    print[ P_Cartesian ] 0
end
*xyz 0 1
 C        1.2748600000     0.3031450000    -0.1793670000 
 N        2.6506110000     0.3710830000    -0.6322250000 
 C        3.1849320000    -0.8912240000    -1.1400190000 
 C        2.6368570000    -1.0959610000    -2.5577050000 
 O        2.8361610000     0.0528890000    -3.3374860000 
 C        4.6798220000    -0.8257750000    -1.1525040000 
 C        5.4643090000    -1.5865840000    -0.4028780000 
 H        0.9896670000     1.2617310000     0.2571320000 
 H        1.0979220000    -0.4860700000     0.5676800000 
 H        0.6064230000     0.1183100000    -1.0230450000 
 H        3.2464900000     0.7106050000     0.1105670000 
 H        2.8717460000    -1.7463240000    -0.5173660000 
 H        1.5692850000    -1.3569210000    -2.5035980000 
 H        3.1541900000    -1.9315630000    -3.0357020000 
 H        2.7303910000     0.7896120000    -2.7156290000 
 H        5.1128270000    -0.1013420000    -1.8382770000 
 H        5.0545680000    -2.3205480000     0.2848840000 
 H        6.5445190000    -1.5116560000    -0.4538520000 
*
