! RI PBE def2-SVP def2-SVP/J NBO PAL2
% maxcore 2000
% output
    # printlevel mini
    print[ P_Basis ] 0
    print[ P_SCFInfo ] 1
    print[ P_SCFIterInfo ] 1
    print[ P_OrbEn ] 0
    print[ P_Cartesian ] 0
end
*xyz 0 1
 C        1.0623610000    -0.1825780000    -0.0426350000 
 N        2.4213530000     0.2236330000     0.2552870000 
 C        2.9351670000     1.2755470000    -0.6210390000 
 C        2.4566170000     2.6329820000    -0.0827960000 
 O        2.7431580000     2.7612730000     1.2778270000 
 C        4.3897900000     1.2034080000    -0.6786780000 
 C        5.5862190000     1.1330380000    -0.7352700000 
 H        0.7796300000    -1.0038270000     0.6174280000 
 H        0.9194660000    -0.5072180000    -1.0847780000 
 H        0.3710700000     0.6409290000     0.1486770000 
 H        3.0453470000    -0.5705050000     0.2325180000 
 H        2.5520660000     1.1652620000    -1.6504740000 
 H        1.3761980000     2.7186750000    -0.2751290000 
 H        2.9555520000     3.4400360000    -0.6234340000 
 H        2.6363710000     1.8688190000     1.6403870000 
 H        6.6484550000     1.0822960000    -0.7803390000 
*
