! RI PBE def2-SVP def2-SVP/J NBO PAL2
% maxcore 2000
% output
    # printlevel mini
    print[ P_Basis ] 0
    print[ P_SCFInfo ] 1
    print[ P_SCFIterInfo ] 1
    print[ P_OrbEn ] 0
    print[ P_Cartesian ] 0
end
*xyz 0 1
 C        0.6881460000    -0.7117380000    -0.0891050000 
 N        2.0317910000    -0.2094440000     0.1068310000 
 C        3.0471010000    -1.0556590000    -0.4745840000 
 C        4.4328090000    -0.4398910000    -0.4278460000 
 O        5.4024680000    -1.1239700000    -0.1932420000 
 C        4.5283370000     1.0130580000    -0.7226500000 
 C        5.6978600000     1.6414850000    -0.6819260000 
 H       -0.0253250000    -0.0597470000     0.4180620000 
 H        0.5366120000    -1.7402610000     0.2754620000 
 H        0.4475550000    -0.6998590000    -1.1557070000 
 H        2.2122050000    -0.0902220000     1.0958470000 
 H        2.8077210000    -1.1883920000    -1.5394740000 
 H        3.1157230000    -2.0631200000    -0.0380400000 
 H        3.6047140000     1.5286730000    -0.9591940000 
 H        6.5992010000     1.0961870000    -0.4213380000 
 H        5.7857920000     2.6986100000    -0.9035860000 
*
