! RI PBE def2-SVP def2-SVP/J NBO PAL2
% maxcore 2000
% output
    # printlevel mini
    print[ P_Basis ] 0
    print[ P_SCFInfo ] 1
    print[ P_SCFIterInfo ] 1
    print[ P_OrbEn ] 0
    print[ P_Cartesian ] 0
end
*xyz 0 1
 C        2.2234520000    -1.7910270000     1.6157220000 
 N        3.0222060000    -0.7085160000     1.0878600000 
 C        3.0094700000    -0.6449330000    -0.3545810000 
 C        3.9049820000     0.4558180000    -0.8587360000 
 O        5.2396650000     0.1253630000    -0.5158290000 
 C        6.1958450000     1.0021370000    -0.8694150000 
 C        6.0533390000     2.1561490000    -1.5144140000 
 H        2.3175340000    -1.8235780000     2.7027470000 
 H        2.4923740000    -2.7833580000     1.2159980000 
 H        1.1688970000    -1.6177460000     1.3817550000 
 H        3.9806910000    -0.7975240000     1.4014670000 
 H        1.9879510000    -0.4305010000    -0.6889840000 
 H        3.3083040000    -1.5954560000    -0.8324150000 
 H        3.6336520000     1.4107500000    -0.3933040000 
 H        3.8192510000     0.5553940000    -1.9476300000 
 H        7.1694660000     0.6428220000    -0.5526210000 
 H        5.0992670000     2.5444450000    -1.8427800000 
 H        6.9356430000     2.7446490000    -1.7234420000 
*
