! RI PBE def2-SVP def2-SVP/J NBO PAL2
% maxcore 2000
% output
    # printlevel mini
    print[ P_Basis ] 0
    print[ P_SCFInfo ] 1
    print[ P_SCFIterInfo ] 1
    print[ P_OrbEn ] 0
    print[ P_Cartesian ] 0
end
*xyz 0 1
 C        1.1414060000     1.2586620000     0.2342240000 
 N        2.2454220000     0.4815770000    -0.2730340000 
 C        2.6927850000     0.8031960000    -1.6058950000 
 C        2.8166010000    -0.5583080000     0.3859030000 
 O        3.7334580000    -1.2125160000    -0.0837080000 
 C        2.2817130000    -0.9026710000     1.7706540000 
 N        2.6393000000     0.1241560000     2.7416300000 
 H        1.2948580000     2.3097560000    -0.0260290000 
 H        1.0962960000     1.1953530000     1.3188430000 
 H        0.1874210000     0.9409490000    -0.2047930000 
 H        1.8759170000     0.6836670000    -2.3261340000 
 H        3.5072380000     0.1337850000    -1.8718030000 
 H        3.0415520000     1.8398760000    -1.6529460000 
 H        2.6900530000    -1.8945660000     1.9898260000 
 H        1.1909600000    -0.9892970000     1.7417780000 
 H        3.6474650000     0.2095580000     2.7941220000 
 H        2.3189650000    -0.1417960000     3.6644610000 
*
