! RI PBE def2-SVP def2-SVP/J NBO PAL2
% maxcore 2000
% output
    # printlevel mini
    print[ P_Basis ] 0
    print[ P_SCFInfo ] 1
    print[ P_SCFIterInfo ] 1
    print[ P_OrbEn ] 0
    print[ P_Cartesian ] 0
end
*xyz 0 1
 C        0.9190010000    -0.2457240000    -0.1260610000 
 N        2.3449880000    -0.0715510000     0.0024370000 
 C        3.0735180000     0.2587420000    -1.1997020000 
 C        3.0275900000    -0.1967100000     1.1591090000 
 O        4.2224500000    -0.0574020000     1.3022810000 
 C        2.2047320000    -0.5354370000     2.3352870000 
 N        1.6375680000    -0.7983830000     3.3001960000 
 H        0.4575100000     0.6729510000    -0.5000350000 
 H        0.4743920000    -0.4909370000     0.8369450000 
 H        0.6981300000    -1.0545320000    -0.8287990000 
 H        2.7044380000     1.1996570000    -1.6180140000 
 H        2.9442330000    -0.5289950000    -1.9475250000 
 H        4.1284510000     0.3588090000    -0.9562100000 
*
