! RI PBE def2-SVP def2-SVP/J NBO PAL2
% maxcore 2000
% output
    # printlevel mini
    print[ P_Basis ] 0
    print[ P_SCFInfo ] 1
    print[ P_SCFIterInfo ] 1
    print[ P_OrbEn ] 0
    print[ P_Cartesian ] 0
end
*xyz 0 1
 C        1.2065090000     0.2136950000    -0.2936910000 
 N        2.6417600000     0.2396040000    -0.1590000000 
 C        3.3645920000    -0.9677220000    -0.4450520000 
 C        3.3774930000    -1.2980670000    -1.9225710000 
 O        3.3864170000    -2.4131580000    -2.3586030000 
 C        3.2335010000     1.2564640000     0.5434830000 
 N        2.7048360000     2.2861390000     1.0628980000 
 H        0.9193450000    -0.5786040000    -0.9855110000 
 H        0.8410120000     1.1600990000    -0.7000830000 
 H        0.7043290000     0.0309260000     0.6650590000 
 H        2.9865830000    -1.8367090000     0.1071820000 
 H        4.4109150000    -0.8290240000    -0.1479320000 
 H        3.3894200000    -0.4075480000    -2.5895250000 
 H        4.3154440000     1.1310710000     0.6306780000 
 H        1.6941420000     2.3107250000     0.9424690000 
*
