! RI PBE def2-SVP def2-SVP/J NBO PAL2
% maxcore 2000
% output
    # printlevel mini
    print[ P_Basis ] 0
    print[ P_SCFInfo ] 1
    print[ P_SCFIterInfo ] 1
    print[ P_OrbEn ] 0
    print[ P_Cartesian ] 0
end
*xyz 0 1
 C        2.9126570000     1.1378640000    -1.5762050000 
 N        2.4457040000     0.2021370000    -0.5639220000 
 C        2.9632930000    -1.1322820000    -0.6911880000 
 C        2.4350520000    -1.9457270000    -1.8903940000 
 O        1.4573530000    -1.6150570000    -2.4909760000 
 C        4.4248560000    -1.1690420000    -0.6879270000 
 N        5.5711590000    -1.2380030000    -0.7253970000 
 H        2.4330960000     2.1011540000    -1.4012770000 
 H        2.7019590000     0.8275760000    -2.6075100000 
 H        3.9897540000     1.2810910000    -1.4676460000 
 H        1.4349530000     0.1441640000    -0.5875950000 
 H        2.6451750000    -1.7203780000     0.1856970000 
 H        2.9874690000    -2.8791550000    -2.1225600000 
*
