! RI PBE def2-SVP def2-SVP/J NBO PAL2
% maxcore 2000
% output
    # printlevel mini
    print[ P_Basis ] 0
    print[ P_SCFInfo ] 1
    print[ P_SCFIterInfo ] 1
    print[ P_OrbEn ] 0
    print[ P_Cartesian ] 0
end
*xyz 0 1
 C        0.8819750000    -0.8706280000     1.3149260000 
 N        2.2616880000    -0.6331130000     0.9613100000 
 C        3.1695180000    -1.5939260000     1.5421880000 
 C        4.6028320000    -1.2154630000     1.2536910000 
 O        4.8604360000     0.0348280000     1.8538600000 
 C        5.5947570000    -2.2420660000     1.7784030000 
 N        6.9425460000    -1.7082240000     1.6251860000 
 H        0.2516870000    -0.0819400000     0.8992040000 
 H        0.6992660000    -0.9208130000     2.4021910000 
 H        0.5488710000    -1.8195680000     0.8833770000 
 H        2.5470720000     0.2926010000     1.2568580000 
 H        2.9635780000    -2.5810270000     1.1098760000 
 H        3.0491960000    -1.6868920000     2.6380720000 
 H        4.7196610000    -1.1327550000     0.1597350000 
 H        5.8258000000     0.0766610000     1.9295110000 
 H        5.4347890000    -3.2061650000     1.2762670000 
 H        5.4105440000    -2.3876880000     2.8470710000 
 H        7.2679050000    -1.8034650000     0.6711500000 
 H        7.6039910000    -2.1843710000     2.2222040000 
*
