! RI PBE def2-SVP def2-SVP/J NBO PAL2
% maxcore 2000
% output
    # printlevel mini
    print[ P_Basis ] 0
    print[ P_SCFInfo ] 1
    print[ P_SCFIterInfo ] 1
    print[ P_OrbEn ] 0
    print[ P_Cartesian ] 0
end
*xyz 0 1
 C        1.0968340000     0.4287720000     0.3797870000 
 N        2.3327430000    -0.0239630000    -0.2155240000 
 C        3.1037090000     0.9837130000    -0.9066460000 
 C        2.8020070000    -1.2845050000    -0.1789140000 
 O        3.8344800000    -1.6615940000    -0.7104240000 
 C        2.0823870000    -2.3777330000     0.6073490000 
 O        1.5008530000    -2.2473990000     1.6473270000 
 H        0.4772840000     0.9083610000    -0.3843910000 
 H        1.2999150000     1.1639730000     1.1648950000 
 H        0.5497140000    -0.3962420000     0.8221900000 
 H        2.5018680000     1.4423600000    -1.6968790000 
 H        3.9848510000     0.5185080000    -1.3416040000 
 H        3.4133430000     1.7682510000    -0.2090610000 
 H        2.2810130000    -3.3681910000     0.1547650000 
*
