! RI PBE def2-SVP def2-SVP/J NBO PAL2
% maxcore 2000
% output
    # printlevel mini
    print[ P_Basis ] 0
    print[ P_SCFInfo ] 1
    print[ P_SCFIterInfo ] 1
    print[ P_OrbEn ] 0
    print[ P_Cartesian ] 0
end
*xyz 0 1
 C        0.7881900000    -0.2141620000    -0.3010030000 
 N        2.0253620000    -0.9543200000    -0.2832540000 
 C        3.2487930000    -0.2739400000     0.1002550000 
 C        4.1305980000     0.0743370000    -1.0865870000 
 O        3.4800220000     0.9112260000    -2.0217020000 
 C        2.0575090000    -2.2873710000    -0.5009270000 
 O        3.0543170000    -2.9748490000    -0.4493760000 
 H        0.5258920000     0.1459710000     0.6996720000 
 H       -0.0158030000    -0.8623540000    -0.6533990000 
 H        0.8595000000     0.6487030000    -0.9667950000 
 H        3.8105390000    -0.9218820000     0.7793120000 
 H        2.9707340000     0.6379880000     0.6339590000 
 H        4.4860460000    -0.8478570000    -1.5573830000 
 H        5.0041250000     0.6234950000    -0.7251470000 
 H        2.9389130000     0.3584050000    -2.5895460000 
 H        1.0595440000    -2.7012710000    -0.7408580000 
*
