! RI PBE def2-SVP def2-SVP/J NBO PAL2
% maxcore 2000
% output
    # printlevel mini
    print[ P_Basis ] 0
    print[ P_SCFInfo ] 1
    print[ P_SCFIterInfo ] 1
    print[ P_OrbEn ] 0
    print[ P_Cartesian ] 0
end
*xyz 0 1
 C        3.4631820000    -2.0079720000    -1.3200670000 
 N        2.8416430000    -1.0836020000    -0.3835350000 
 C        3.1329240000    -1.3419930000     0.9989460000 
 C        2.6972370000    -2.6946060000     1.5548030000 
 O        1.8750140000    -3.3773050000     1.0115940000 
 C        4.5824770000    -1.0389760000     1.3307920000 
 O        5.1112670000    -1.3559890000     2.3586910000 
 H        3.2225570000    -1.6935090000    -2.3365240000 
 H        3.1537260000    -3.0520290000    -1.1950570000 
 H        4.5509050000    -1.9578480000    -1.2194710000 
 H        1.8403820000    -1.0758460000    -0.5241710000 
 H        2.5800400000    -0.6128400000     1.6160990000 
 H        3.1763300000    -2.9935570000     2.5071610000 
 H        5.1136080000    -0.4604580000     0.5470400000 
*
