! RI PBE def2-SVP def2-SVP/J NBO PAL2
% maxcore 2000
% output
    # printlevel mini
    print[ P_Basis ] 0
    print[ P_SCFInfo ] 1
    print[ P_SCFIterInfo ] 1
    print[ P_OrbEn ] 0
    print[ P_Cartesian ] 0
end
*xyz 0 1
 C        2.8145370000     0.5854300000     0.2028880000 
 N        3.7863930000     0.8406930000    -0.8377810000 
 C        3.9712120000    -0.2489990000    -1.7866980000 
 C        3.0395360000     0.0033640000    -2.9725870000 
 O        3.2410520000     1.3098980000    -3.4712780000 
 C        5.4268960000    -0.3475110000    -2.2266700000 
 O        5.9531230000     0.8569990000    -2.7258510000 
 H        2.7439590000     1.4519910000     0.8628390000 
 H        3.0460140000    -0.2997290000     0.8157320000 
 H        1.8264040000     0.4318870000    -0.2383050000 
 H        4.6755550000     1.1278880000    -0.4524120000 
 H        3.7104800000    -1.2220850000    -1.3381750000 
 H        1.9924570000    -0.1357030000    -2.6688070000 
 H        3.2444680000    -0.6995010000    -3.7840600000 
 H        3.2740880000     1.8534460000    -2.6660840000 
 H        5.5086280000    -1.1586740000    -2.9655310000 
 H        6.0488050000    -0.6272720000    -1.3695750000 
 H        5.2958950000     1.2171490000    -3.3371760000 
*
