! RI PBE def2-SVP def2-SVP/J NBO PAL2
% maxcore 2000
% output
    # printlevel mini
    print[ P_Basis ] 0
    print[ P_SCFInfo ] 1
    print[ P_SCFIterInfo ] 1
    print[ P_OrbEn ] 0
    print[ P_Cartesian ] 0
end
*xyz 0 1
 C        0.9429760000     0.1112860000     0.3508840000 
 N        2.3827500000     0.1506180000     0.2398940000 
 C        2.8722690000     1.3788240000    -0.3401980000 
 C        4.3670340000     1.3097660000    -0.5484000000 
 O        4.6318910000     0.2625650000    -1.4593200000 
 C        4.9407150000     2.6084940000    -1.0799290000 
 O        6.3159510000     2.4605720000    -1.3914820000 
 H        0.6284090000    -0.8597670000     0.7380670000 
 H        0.4145600000     0.2908870000    -0.6008730000 
 H        0.6071330000     0.8730890000     1.0609920000 
 H        2.7134240000    -0.6227620000    -0.3241810000 
 H        2.6427480000     2.2067760000     0.3417460000 
 H        2.3956590000     1.6145200000    -1.3099260000 
 H        4.8375070000     1.0830310000     0.4236430000 
 H        5.5313130000     0.3995520000    -1.7788600000 
 H        4.7764310000     3.4237920000    -0.3645890000 
 H        4.4495040000     2.8707210000    -2.0202650000 
 H        6.8110230000     2.4201470000    -0.5685330000 
*
