! RI PBE def2-SVP def2-SVP/J NBO PAL2
% maxcore 2000
% output
    # printlevel mini
    print[ P_Basis ] 0
    print[ P_SCFInfo ] 1
    print[ P_SCFIterInfo ] 1
    print[ P_OrbEn ] 0
    print[ P_Cartesian ] 0
end
*xyz 0 1
 C        1.7233250000    -0.6399540000     0.1543330000 
 N        2.9556210000     0.0953960000     0.2512540000 
 C        2.9733600000     1.2622820000     1.1184270000 
 C        4.3722710000     1.7832200000     1.3910660000 
 O        4.9443610000     2.4609070000     0.3038950000 
 N        3.7455590000     0.1962680000    -0.8235410000 
 C        3.5796160000    -0.5376030000    -1.8544180000 
 H        1.1930380000    -0.5630400000     1.1020120000 
 H        1.9187360000    -1.6983670000    -0.0403480000 
 H        1.0743980000    -0.2578520000    -0.6490050000 
 H        2.5205400000     0.9612120000     2.0671440000 
 H        2.3645960000     2.0783880000     0.6989490000 
 H        5.0027570000     0.9454300000     1.7238670000 
 H        4.3125760000     2.4994300000     2.2151210000 
 H        4.8842030000     1.8367880000    -0.4340980000 
 H        4.2948020000    -0.4177240000    -2.6587260000 
 H        2.7898600000    -1.2770800000    -1.9668510000 
*
