! RI PBE def2-SVP def2-SVP/J NBO PAL2
% maxcore 2000
% output
    # printlevel mini
    print[ P_Basis ] 0
    print[ P_SCFInfo ] 1
    print[ P_SCFIterInfo ] 1
    print[ P_OrbEn ] 0
    print[ P_Cartesian ] 0
end
*xyz 0 1
 C        1.5256870000     0.8781230000    -0.6171820000 
 N        1.7587140000    -0.1952810000    -1.5386970000 
 C        3.0008740000    -0.5416840000    -1.9393430000 
 C        2.9967180000    -1.6932560000    -2.9057120000 
 O        1.9854010000    -2.2340810000    -3.2703940000 
 N        4.0405850000     0.0702120000    -1.5177820000 
 C        5.3649360000    -0.3081650000    -1.9526260000 
 H        0.4543900000     0.9719880000    -0.4434430000 
 H        1.9105530000     1.8242630000    -1.0097230000 
 H        2.0298780000     0.6944230000     0.3364580000 
 H        1.0000790000    -0.7318070000    -1.9221620000 
 H        3.9842540000    -2.0230540000    -3.2700870000 
 H        6.0864310000     0.3485390000    -1.4643960000 
 H        5.5151790000    -0.1968040000    -3.0336210000 
 H        5.6348200000    -1.3356070000    -1.6786810000 
*
