! RI PBE def2-SVP def2-SVP/J NBO PAL2
% maxcore 2000
% output
    # printlevel mini
    print[ P_Basis ] 0
    print[ P_SCFInfo ] 1
    print[ P_SCFIterInfo ] 1
    print[ P_OrbEn ] 0
    print[ P_Cartesian ] 0
end
*xyz 0 1
 C        2.1849710000    -0.3485000000    -0.8147020000 
 N        1.9385150000     0.5442890000     0.2868050000 
 C        2.9375220000     0.8428820000     1.1632810000 
 C        2.4909940000     1.6421150000     2.3719930000 
 O        1.1278670000     2.0041930000     2.3651140000 
 N        4.1374430000     0.4800050000     0.9362150000 
 C        5.1670090000     0.8786340000     1.8630730000 
 H        1.2828470000    -0.4202440000    -1.4228770000 
 H        2.4802040000    -1.3499230000    -0.4810180000 
 H        2.9995530000     0.0397420000    -1.4271890000 
 H        1.0111360000     0.5807570000     0.6760450000 
 H        3.1397050000     2.5205450000     2.4733810000 
 H        2.6460620000     1.0355050000     3.2686590000 
 H        1.0060870000     2.7050510000     1.7192100000 
 H        6.1158130000     0.4383270000     1.5524840000 
 H        4.9786360000     0.5455210000     2.8938430000 
 H        5.3144370000     1.9680120000     1.8966810000 
*
