! RI PBE def2-SVP def2-SVP/J NBO PAL2
% maxcore 2000
% output
    # printlevel mini
    print[ P_Basis ] 0
    print[ P_SCFInfo ] 1
    print[ P_SCFIterInfo ] 1
    print[ P_OrbEn ] 0
    print[ P_Cartesian ] 0
end
*xyz 0 1
 C        0.7792720000    -0.1045450000    -0.0730380000 
 N        2.1892320000    -0.2320190000     0.2224300000 
 C        2.7661880000     0.9766740000     0.7664780000 
 C        4.2182740000     0.7437900000     1.1140920000 
 O        4.7341970000     1.9673360000     1.6108980000 
 N        6.0610980000     1.8222760000     1.9208890000 
 C        6.5611680000     2.8863320000     2.3867410000 
 H        0.4144020000    -1.0247060000    -0.5332800000 
 H        0.5352510000     0.7373160000    -0.7422610000 
 H        0.2231600000     0.0421700000     0.8569400000 
 H        2.6898310000    -0.4997560000    -0.6162080000 
 H        2.2186930000     1.2413370000     1.6771230000 
 H        2.6888220000     1.8441990000     0.0881150000 
 H        4.7889080000     0.4394560000     0.2281810000 
 H        4.3119000000    -0.0419310000     1.8691270000 
 H        7.6099860000     2.8514380000     2.6544790000 
 H        5.9838070000     3.8003400000     2.5193960000 
*
