! RI PBE def2-SVP def2-SVP/J NBO PAL2
% maxcore 2000
% output
    # printlevel mini
    print[ P_Basis ] 0
    print[ P_SCFInfo ] 1
    print[ P_SCFIterInfo ] 1
    print[ P_OrbEn ] 0
    print[ P_Cartesian ] 0
end
*xyz 0 1
 C        1.0687670000     0.4019180000    -0.3130790000 
 N        2.4869480000     0.3657050000    -0.5306900000 
 C        3.0414590000    -0.3649610000    -1.5351170000 
 N        2.4574350000    -1.0027740000    -2.4727550000 
 C        4.5346410000    -0.3670400000    -1.5301360000 
 C        5.2919280000     0.8837330000    -1.5170160000 
 O        5.1739430000     0.0916750000    -0.3457090000 
 H        0.8564130000     1.0222220000     0.5568290000 
 H        0.6460030000    -0.5957450000    -0.1385110000 
 H        0.5537850000     0.8434090000    -1.1716990000 
 H        3.1057350000     0.5771740000     0.2359720000 
 H        1.4445250000    -0.9312200000    -2.4081440000 
 H        4.9737080000    -1.2436720000    -1.9952940000 
 H        4.7507880000     1.8257810000    -1.4962270000 
 H        6.2828220000     0.9087050000    -1.9617340000 
*
