! RI PBE def2-SVP def2-SVP/J NBO PAL2
% maxcore 2000
% output
    # printlevel mini
    print[ P_Basis ] 0
    print[ P_SCFInfo ] 1
    print[ P_SCFIterInfo ] 1
    print[ P_OrbEn ] 0
    print[ P_Cartesian ] 0
end
*xyz 0 1
 C        1.2836990000     0.4290380000     0.5047440000 
 N        2.6330220000     0.9176550000     0.4017060000 
 C        2.9776890000     1.4305480000    -0.7148400000 
 N        2.2367530000     1.5814790000    -1.8360310000 
 C        4.3881210000     1.9555510000    -0.8624580000 
 C        5.2964150000     1.8394770000     0.3176650000 
 O        4.7262490000     2.4437180000    -1.9165410000 
 H        1.1125880000     0.0175250000     1.4995460000 
 H        1.0751210000    -0.3668840000    -0.2263050000 
 H        0.5418340000     1.2253600000     0.3406260000 
 H        1.2831440000     1.2810130000    -1.8892450000 
 H        2.6802610000     2.0125000000    -2.6295050000 
 H        4.8633520000     2.3597460000     1.1740200000 
 H        6.2693980000     2.2553840000     0.0638210000 
 H        5.3873850000     0.7935990000     0.6167070000 
*
