! RI PBE def2-SVP def2-SVP/J NBO PAL2
% maxcore 2000
% output
    # printlevel mini
    print[ P_Basis ] 0
    print[ P_SCFInfo ] 1
    print[ P_SCFIterInfo ] 1
    print[ P_OrbEn ] 0
    print[ P_Cartesian ] 0
end
*xyz 0 1
 C        0.6539130000    -0.0970580000    -0.3194260000 
 N        2.0911280000    -0.1604320000    -0.2372860000 
 C        2.7261490000     0.9426080000    -0.2190560000 
 N        2.1931680000     2.1998800000    -0.3126120000 
 C        4.2300170000     0.8694150000    -0.1903430000 
 C        4.9822090000     1.8506560000     0.6579260000 
 O        4.5626370000     2.9002590000     1.0723060000 
 H        0.2433760000    -1.1068210000    -0.2949490000 
 H        0.3100980000     0.3784670000    -1.2494170000 
 H        0.2054690000     0.4577250000     0.5196130000 
 H        1.2003920000     2.2830960000    -0.1710600000 
 H        2.7514430000     2.9394100000     0.0900880000 
 H        4.6198480000     1.0167820000    -1.2097620000 
 H        4.5156900000    -0.1469400000     0.0873910000 
 H        6.0293620000     1.5520530000     0.8738850000 
*
