! RI PBE def2-SVP def2-SVP/J NBO PAL2
% maxcore 2000
% output
    # printlevel mini
    print[ P_Basis ] 0
    print[ P_SCFInfo ] 1
    print[ P_SCFIterInfo ] 1
    print[ P_OrbEn ] 0
    print[ P_Cartesian ] 0
end
*xyz 0 1
 C        0.9994950000    -0.1284610000    -0.2846810000 
 N        2.4378610000     0.0199720000    -0.2322990000 
 C        3.0673540000    -0.7015530000     0.5841420000 
 N        4.4423060000    -0.6525610000     0.7278960000 
 C        5.2498850000     0.2494770000    -0.0684660000 
 C        5.0619640000    -1.4664080000     1.6357050000 
 O        6.2514980000    -1.4879140000     1.8240020000 
 H        0.5930530000     0.5531910000    -1.0317950000 
 H        0.5275090000     0.1104280000     0.6750990000 
 H        0.7020740000    -1.1452080000    -0.5653960000 
 H        2.5992760000    -1.4326960000     1.2556720000 
 H        4.5819700000     0.8044880000    -0.7215710000 
 H        5.9724560000    -0.3191060000    -0.6551280000 
 H        5.7989910000     0.9297720000     0.5836380000 
 H        4.3517080000    -2.1104330000     2.1850910000 
*
