! RI PBE def2-SVP def2-SVP/J NBO PAL2
% maxcore 2000
% output
    # printlevel mini
    print[ P_Basis ] 0
    print[ P_SCFInfo ] 1
    print[ P_SCFIterInfo ] 1
    print[ P_OrbEn ] 0
    print[ P_Cartesian ] 0
end
*xyz 0 1
 C        0.7557100000     0.1963960000    -0.2423820000 
 N        2.1632370000     0.2628320000     0.0456640000 
 C        2.7225860000     1.3886070000    -0.0335360000 
 N        4.0723080000     1.5192710000     0.2308790000 
 C        4.7494030000     2.7132150000     0.1659230000 
 C        6.2171530000     2.6354770000     0.4924750000 
 O        4.2045840000     3.7515430000    -0.1323860000 
 H        0.2241010000    -0.2039090000     0.6255900000 
 H        0.5844500000    -0.5022160000    -1.0662660000 
 H        0.3118100000     1.1660740000    -0.5078980000 
 H        2.2385510000     2.3309490000    -0.3026430000 
 H        4.5583890000     0.6737120000     0.4836710000 
 H        6.5607700000     1.6310790000     0.7417010000 
 H        6.4204230000     3.3035900000     1.3307630000 
 H        6.7817250000     3.0065790000    -0.3642440000 
*
