! RI PBE def2-SVP def2-SVP/J NBO PAL2
% maxcore 2000
% output
    # printlevel mini
    print[ P_Basis ] 0
    print[ P_SCFInfo ] 1
    print[ P_SCFIterInfo ] 1
    print[ P_OrbEn ] 0
    print[ P_Cartesian ] 0
end
*xyz 0 1
 C        0.5100930000     1.7931160000    -0.3567980000 
 N        1.9065440000     2.1037510000    -0.2210240000 
 C        2.7080740000     1.1374890000    -0.0532400000 
 N        4.0433640000     1.3137500000     0.1129370000 
 C        4.6463770000     2.5960730000    -0.0150980000 
 C        6.1359150000     2.4862280000    -0.0668210000 
 O        6.7321920000     1.4430860000    -0.0395320000 
 H        0.1314490000     2.1752180000    -1.3099130000 
 H       -0.0641680000     2.2902350000     0.4314370000 
 H        0.2903300000     0.7149840000    -0.3096470000 
 H        2.3933690000     0.0857880000    -0.0126180000 
 H        4.6670530000     0.5242340000     0.0859830000 
 H        4.3790070000     3.2683710000     0.8137370000 
 H        4.3067700000     3.1245240000    -0.9196000000 
 H        6.6735510000     3.4530440000    -0.1362030000 
*
