! RI PBE def2-SVP def2-SVP/J NBO PAL2
% maxcore 2000
% output
    # printlevel mini
    print[ P_Basis ] 0
    print[ P_SCFInfo ] 1
    print[ P_SCFIterInfo ] 1
    print[ P_OrbEn ] 0
    print[ P_Cartesian ] 0
end
*xyz 0 1
 C        0.9642580000     0.1828620000     0.4778820000 
 N        2.3367620000     0.5813750000     0.2974120000 
 C        3.0254810000     1.2825520000     1.3483250000 
 N        2.9042800000     0.2819830000    -0.8343380000 
 C        4.1338580000     0.6007700000    -1.0830490000 
 C        4.6583920000     0.2142360000    -2.3793480000 
 O        5.7862680000     0.4424610000    -2.7537420000 
 H        0.8601160000    -0.4985600000     1.3287350000 
 H        0.6440050000    -0.3263930000    -0.4279960000 
 H        0.3203300000     1.0521200000     0.6478250000 
 H        2.3462170000     1.4151260000     2.1882710000 
 H        3.3637310000     2.2681550000     1.0083560000 
 H        3.9024540000     0.7198120000     1.6884020000 
 H        4.7921080000     1.1310250000    -0.3971640000 
 H        3.9262300000    -0.3213060000    -3.0186820000 
*
