! RI PBE def2-SVP def2-SVP/J NBO PAL2
% maxcore 2000
% output
    # printlevel mini
    print[ P_Basis ] 0
    print[ P_SCFInfo ] 1
    print[ P_SCFIterInfo ] 1
    print[ P_OrbEn ] 0
    print[ P_Cartesian ] 0
end
*xyz 0 1
 C        0.9014300000    -1.2947080000     0.1274040000 
 N        2.3043230000    -1.0142610000     0.2346900000 
 C        2.8113810000    -0.2299300000     1.2292320000 
 N        2.1453010000     0.4385430000     2.0920870000 
 C        4.3163960000    -0.1445900000     1.2575030000 
 C        5.0278200000    -1.4712070000     1.4303670000 
 O        4.9111140000    -2.2235080000     0.2276480000 
 H        0.7351090000    -1.9607030000    -0.7188550000 
 H        0.3293020000    -0.3788390000    -0.0529640000 
 H        0.4957490000    -1.7738380000     1.0284590000 
 H        2.9577130000    -1.6388550000    -0.2109550000 
 H        1.1423510000     0.3065660000     1.9746120000 
 H        4.5753740000     0.5116250000     2.0880930000 
 H        4.6758420000     0.3215330000     0.3336280000 
 H        4.5933650000    -2.0214680000     2.2747820000 
 H        6.0850840000    -1.2842990000     1.6543780000 
 H        5.2876580000    -3.0946890000     0.3694990000 
*
