! RI PBE def2-SVP def2-SVP/J NBO PAL2
% maxcore 2000
% output
    # printlevel mini
    print[ P_Basis ] 0
    print[ P_SCFInfo ] 1
    print[ P_SCFIterInfo ] 1
    print[ P_OrbEn ] 0
    print[ P_Cartesian ] 0
end
*xyz 0 1
 C        1.1395560000     0.1136660000     0.2243930000 
 N        2.5686520000     0.1182920000     0.0700060000 
 C        3.0647610000    -0.1062490000    -1.0808990000 
 N        2.2661310000    -0.2795710000    -2.2123170000 
 O        2.8361100000    -0.9964910000    -3.2718450000 
 C        4.5226550000    -0.0979600000    -1.2970000000 
 C        5.3876070000     0.0779930000    -0.3062490000 
 H        0.8872460000     0.2763580000     1.2725860000 
 H        0.6783730000    -0.8435080000    -0.0724810000 
 H        0.6537190000     0.9052250000    -0.3636520000 
 H        1.3650970000    -0.6900800000    -2.0030900000 
 H        2.8124070000    -0.3798540000    -4.0105360000 
 H        4.8673940000    -0.2557520000    -2.3107100000 
 H        5.0378190000     0.2216720000     0.7096300000 
 H        6.4548940000     0.0810400000    -0.4912470000 
*
