! RI PBE def2-SVP def2-SVP/J NBO PAL2
% maxcore 2000
% output
    # printlevel mini
    print[ P_Basis ] 0
    print[ P_SCFInfo ] 1
    print[ P_SCFIterInfo ] 1
    print[ P_OrbEn ] 0
    print[ P_Cartesian ] 0
end
*xyz 0 1
 C        1.0962190000     0.0366280000    -0.0582330000 
 N        2.5352760000    -0.0004390000    -0.0987800000 
 C        3.1419850000    -0.6362310000     0.8209840000 
 N        2.5126220000    -1.2320750000     1.9130740000 
 O        3.2097690000    -2.2812120000     2.5135770000 
 C        4.5764120000    -0.6795980000     0.8297490000 
 C        5.7760660000    -0.6985640000     0.8267650000 
 H        0.7252370000     0.5669910000    -0.9348770000 
 H        0.7231630000     0.5560920000     0.8349720000 
 H        0.6442590000    -0.9683550000    -0.0679710000 
 H        1.5720090000    -1.5467120000     1.7138910000 
 H        3.4793940000    -1.9296030000     3.3681680000 
 H        6.8403890000    -0.7122210000     0.8084810000 
*
