! RI PBE def2-SVP def2-SVP/J NBO PAL2
% maxcore 2000
% output
    # printlevel mini
    print[ P_Basis ] 0
    print[ P_SCFInfo ] 1
    print[ P_SCFIterInfo ] 1
    print[ P_OrbEn ] 0
    print[ P_Cartesian ] 0
end
*xyz 0 1
 C        0.9328890000     0.3649360000    -0.2426400000 
 N        2.3672170000     0.2976570000    -0.2209170000 
 C        3.0166350000     0.5722720000    -1.2780160000 
 N        4.3691410000     0.5069860000    -1.2492820000 
 O        4.9119010000     0.1408750000    -0.0466190000 
 C        5.2300230000     0.7661080000    -2.2830380000 
 C        6.5575470000     0.6929770000    -2.2219130000 
 H        0.5798830000     1.0828570000     0.5035920000 
 H        0.5079460000    -0.6069420000     0.0251260000 
 H        0.5260600000     0.6590300000    -1.2200440000 
 H        2.5929890000     0.8653740000    -2.2418450000 
 H        4.0924240000     0.0225840000     0.4885740000 
 H        4.7044410000     1.0468970000    -3.1891420000 
 H        7.0697910000     0.4118970000    -1.3129150000 
 H        7.1409130000     0.9199030000    -3.1022120000 
*
