! RI PBE def2-SVP def2-SVP/J NBO PAL2
% maxcore 2000
% output
    # printlevel mini
    print[ P_Basis ] 0
    print[ P_SCFInfo ] 1
    print[ P_SCFIterInfo ] 1
    print[ P_OrbEn ] 0
    print[ P_Cartesian ] 0
end
*xyz 0 1
 C        0.8950290000    -0.0740840000    -0.0785250000 
 N        2.2991450000     0.2323770000    -0.2141310000 
 C        2.7556750000     0.8143720000    -1.3529920000 
 O        2.0657130000     1.2016890000    -2.2689220000 
 C        3.1977000000    -0.3166900000     0.7462890000 
 C        4.3435060000     0.5004600000     1.2534760000 
 C        3.1794150000     0.2111510000     2.1485470000 
 H        0.3582840000     0.4294200000    -0.8804520000 
 H        0.5223490000     0.2690500000     0.8891530000 
 H        0.7189220000    -1.1525070000    -0.1547170000 
 H        3.8551030000     0.9119660000    -1.3527880000 
 H        3.3738920000    -1.3861880000     0.6446850000 
 H        4.4413980000     1.5128320000     0.8842040000 
 H        5.2819390000    -0.0080940000     1.4326160000 
 H        2.5041580000     1.0318270000     2.3564890000 
 H        3.3028730000    -0.4958600000     2.9586580000 
*
