! RI PBE def2-SVP def2-SVP/J NBO PAL2
% maxcore 2000
% output
    # printlevel mini
    print[ P_Basis ] 0
    print[ P_SCFInfo ] 1
    print[ P_SCFIterInfo ] 1
    print[ P_OrbEn ] 0
    print[ P_Cartesian ] 0
end
*xyz 0 1
 C        1.2472260000     0.0697770000    -0.3604380000 
 N        2.6792020000     0.1704280000    -0.2339180000 
 C        3.2518820000     0.6740800000     0.8843180000 
 O        2.5875050000     1.0662050000     1.8277170000 
 C        4.7403500000     0.7146490000     0.8778590000 
 C        5.3938220000     1.8600000000     1.6047330000 
 C        5.4334410000     0.4998150000     2.1970870000 
 H        1.0057400000    -0.3561060000    -1.3337700000 
 H        0.7772500000     1.0521760000    -0.2751420000 
 H        0.8282560000    -0.5680350000     0.4213460000 
 H        3.2657690000    -0.1450430000    -0.9842750000 
 H        5.2385530000     0.3419060000    -0.0104140000 
 H        4.7163860000     2.5750180000     2.0537750000 
 H        6.2981630000     2.2691060000     1.1726980000 
 H        4.7833100000     0.3088960000     3.0412970000 
 H        6.3662440000    -0.0493740000     2.1827270000 
*
