! RI PBE def2-SVP def2-SVP/J NBO PAL2
% maxcore 2000
% output
    # printlevel mini
    print[ P_Basis ] 0
    print[ P_SCFInfo ] 1
    print[ P_SCFIterInfo ] 1
    print[ P_OrbEn ] 0
    print[ P_Cartesian ] 0
end
*xyz 0 1
 C        3.3667760000    -1.0728140000     0.7327300000 
 N        2.5347900000    -0.1342920000     0.0128000000 
 C        1.1876640000    -0.3769700000    -0.0229360000 
 O        0.6447570000    -1.3202740000     0.5032000000 
 C        3.1288350000     0.9695640000    -0.6108570000 
 C        2.2383120000     1.9225190000    -1.3483170000 
 C        4.4482460000     1.1766250000    -0.5565020000 
 H        2.7178800000    -1.8458050000     1.1364890000 
 H        3.8920280000    -0.5703390000     1.5483620000 
 H        4.1027560000    -1.5232870000     0.0626230000 
 H        0.6244060000     0.3766510000    -0.5877200000 
 H        1.4939330000     2.3816270000    -0.6921180000 
 H        1.7032220000     1.4351660000    -2.1678570000 
 H        2.8485820000     2.7180990000    -1.7720080000 
 H        5.1324380000     0.5206120000    -0.0387980000 
 H        4.8695750000     2.0406190000    -1.0507700000 
*
