! RI PBE def2-SVP def2-SVP/J NBO PAL2
% maxcore 2000
% output
    # printlevel mini
    print[ P_Basis ] 0
    print[ P_SCFInfo ] 1
    print[ P_SCFIterInfo ] 1
    print[ P_OrbEn ] 0
    print[ P_Cartesian ] 0
end
*xyz 0 1
 C        1.3156540000     0.4037500000    -0.3672030000 
 N        2.7356090000     0.2623810000    -0.1743600000 
 C        3.2362270000    -0.4718570000     0.8504800000 
 O        2.5084640000    -1.0392630000     1.6465550000 
 C        4.7180520000    -0.5192070000     0.9118000000 
 C        5.3360270000    -1.2043610000     1.8677520000 
 C        6.8060510000    -1.3260500000     2.0329840000 
 H        1.1348410000     1.0287300000    -1.2411360000 
 H        0.8467220000     0.8653470000     0.5051000000 
 H        0.8431750000    -0.5694980000    -0.5202530000 
 H        3.3687600000     0.7141740000    -0.8083290000 
 H        5.2882940000     0.0189270000     0.1574870000 
 H        4.6996690000    -1.7169790000     2.5866280000 
 H        7.3535470000    -0.7776350000     1.2645240000 
 H        7.1124710000    -2.3763930000     1.9949300000 
 H        7.1158580000    -0.9517650000     3.0140490000 
*
