! RI PBE def2-SVP def2-SVP/J NBO PAL2
% maxcore 2000
% output
    # printlevel mini
    print[ P_Basis ] 0
    print[ P_SCFInfo ] 1
    print[ P_SCFIterInfo ] 1
    print[ P_OrbEn ] 0
    print[ P_Cartesian ] 0
end
*xyz 0 1
 C        1.3849250000     0.1329940000     0.1550570000 
 N        2.7973380000    -0.1095330000    -0.0026590000 
 C        3.5258600000    -0.6872180000     0.9800160000 
 O        3.0242710000    -1.0258240000     2.0359840000 
 C        5.0048940000    -0.8860400000     0.6857020000 
 C        5.8287790000    -0.0984770000     1.6977110000 
 C        5.3333410000    -2.3732880000     0.7419890000 
 H        1.0028630000     0.6118420000    -0.7459110000 
 H        1.1943850000     0.7821170000     1.0126470000 
 H        0.8435480000    -0.8014840000     0.3196470000 
 H        3.2524840000     0.1522470000    -0.8576110000 
 H        5.2249600000    -0.5108480000    -0.3211840000 
 H        5.5876600000    -0.4302290000     2.7093580000 
 H        5.6264420000     0.9735140000     1.6357170000 
 H        6.8963690000    -0.2541690000     1.5253970000 
 H        5.0770870000    -2.7717360000     1.7254470000 
 H        6.3994720000    -2.5361130000     0.5671820000 
 H        4.7749120000    -2.9383760000    -0.0081900000 
*
