! RI PBE def2-SVP def2-SVP/J NBO PAL2
% maxcore 2000
% output
    # printlevel mini
    print[ P_Basis ] 0
    print[ P_SCFInfo ] 1
    print[ P_SCFIterInfo ] 1
    print[ P_OrbEn ] 0
    print[ P_Cartesian ] 0
end
*xyz 0 1
 C        2.8667080000    -0.5116140000     1.2059880000 
 N        2.3277510000    -0.0739390000    -0.0531970000 
 C        3.0134270000     0.3366800000    -1.1489050000 
 O        2.4588190000     0.6875420000    -2.1728990000 
 C        4.4622170000     0.3360810000    -1.0351000000 
 C        5.6652980000     0.3696530000    -1.0377660000 
 C        7.1118590000     0.4185100000    -1.0602870000 
 H        2.5252170000     0.1252320000     2.0271460000 
 H        3.9537280000    -0.4590090000     1.1621000000 
 H        2.5815060000    -1.5450530000     1.4234950000 
 H        1.3278530000    -0.0577980000    -0.1785350000 
 H        7.5416880000    -0.0867300000    -0.1923570000 
 H        7.4586500000     1.4549310000    -1.0577500000 
 H        7.4980690000    -0.0613760000    -1.9628240000 
*
