! RI PBE def2-SVP def2-SVP/J NBO PAL2
% maxcore 2000
% output
    # printlevel mini
    print[ P_Basis ] 0
    print[ P_SCFInfo ] 1
    print[ P_SCFIterInfo ] 1
    print[ P_OrbEn ] 0
    print[ P_Cartesian ] 0
end
*xyz 0 1
 C        1.2143950000     1.0644610000     0.1324600000 
 N        2.5747290000     0.6209810000     0.2956250000 
 C        3.1452120000    -0.2997330000    -0.5175410000 
 O        2.5655140000    -0.8160960000    -1.4520790000 
 C        4.5896520000    -0.6447560000    -0.1922500000 
 C        4.7681850000    -2.1187090000    -0.0253280000 
 C        5.3730560000    -2.6902220000     1.0054840000 
 H        1.1657380000     2.1466800000    -0.0130060000 
 H        0.6007900000     0.7962150000     0.9967520000 
 H        0.8130260000     0.5695620000    -0.7504900000 
 H        3.1154800000     0.9785750000     1.0623850000 
 H        4.9550660000    -0.1106670000     0.6889660000 
 H        5.1750730000    -0.3021660000    -1.0540810000 
 H        4.3517570000    -2.7259190000    -0.8240810000 
 H        5.7919310000    -2.1051760000     1.8189170000 
 H        5.4754950000    -3.7669290000     1.0722470000 
*
