! RI PBE def2-SVP def2-SVP/J NBO PAL2
% maxcore 2000
% output
    # printlevel mini
    print[ P_Basis ] 0
    print[ P_SCFInfo ] 1
    print[ P_SCFIterInfo ] 1
    print[ P_OrbEn ] 0
    print[ P_Cartesian ] 0
end
*xyz 0 1
 C        1.2266750000    -0.5018070000    -0.0310090000 
 N        2.5363730000     0.0343000000     0.2306390000 
 C        3.1663160000     0.8595050000    -0.6253530000 
 O        2.7107130000     1.2336410000    -1.6865040000 
 C        4.5551280000     1.3376530000    -0.1917280000 
 C        5.0438840000     0.8563110000     1.0850890000 
 C        5.4223840000     0.4413250000     2.1469490000 
 H        1.2483480000    -1.5938610000    -0.0721770000 
 H        0.8971230000    -0.1179720000    -0.9952550000 
 H        0.5130170000    -0.1924160000     0.7369310000 
 H        3.0170390000    -0.2059110000     1.0827560000 
 H        4.5181960000     2.4307950000    -0.1979520000 
 H        5.2413350000     1.0525370000    -0.9943470000 
 H        5.7763780000     0.0847100000     3.0855510000 
*
