! RI PBE def2-SVP def2-SVP/J NBO PAL2
% maxcore 2000
% output
    # printlevel mini
    print[ P_Basis ] 0
    print[ P_SCFInfo ] 1
    print[ P_SCFIterInfo ] 1
    print[ P_OrbEn ] 0
    print[ P_Cartesian ] 0
end
*xyz 0 1
 C        1.1796130000     0.1777010000     0.2103590000 
 N        2.5810260000     0.0738050000    -0.1376230000 
 C        2.9687480000     0.5259240000    -1.3774270000 
 O        2.2198030000     1.0016080000    -2.1939790000 
 C        3.4775750000    -0.4768740000     0.7907340000 
 C        4.9232020000    -0.5724570000     0.4041460000 
 N        3.1348940000    -0.8981130000     1.9376500000 
 H        0.6656460000     0.6259320000    -0.6363970000 
 H        1.0446360000     0.8111680000     1.0903620000 
 H        0.7550540000    -0.8094710000     0.4082330000 
 H        4.0437330000     0.4118070000    -1.5656700000 
 H        5.3564470000     0.4090290000     0.1973750000 
 H        5.0692860000    -1.1991000000    -0.4788890000 
 H        5.4484670000    -1.0195770000     1.2443110000 
 H        2.1390810000    -0.7942710000     2.1135050000 
*
