! RI PBE def2-SVP def2-SVP/J NBO PAL2
% maxcore 2000
% output
    # printlevel mini
    print[ P_Basis ] 0
    print[ P_SCFInfo ] 1
    print[ P_SCFIterInfo ] 1
    print[ P_OrbEn ] 0
    print[ P_Cartesian ] 0
end
*xyz 0 1
 C        0.9414300000    -1.2712990000     0.6003430000 
 N        2.3275020000    -1.0011510000     0.3211890000 
 C        3.2833060000    -1.9641450000     0.3467040000 
 O        3.0339710000    -3.1346900000     0.5624100000 
 C        4.6956570000    -1.4702050000     0.1126920000 
 C        5.5401920000    -2.4861310000    -0.6329610000 
 N        6.9273660000    -2.0502140000    -0.6776890000 
 H        0.3028270000    -0.9647620000    -0.2321630000 
 H        0.6073230000    -0.7596890000     1.5074820000 
 H        0.8408050000    -2.3457350000     0.7458790000 
 H        2.6144490000    -0.0542660000     0.1485670000 
 H        5.1539670000    -1.2894340000     1.0911020000 
 H        4.6894000000    -0.5102750000    -0.4160500000 
 H        5.0955140000    -2.6673070000    -1.6234850000 
 H        5.4861790000    -3.4320900000    -0.0916570000 
 H        7.0321060000    -1.2448500000    -1.2833500000 
 H        7.5148170000    -2.7800470000    -1.0600130000 
*
