! RI PBE def2-SVP def2-SVP/J NBO PAL2
% maxcore 2000
% output
    # printlevel mini
    print[ P_Basis ] 0
    print[ P_SCFInfo ] 1
    print[ P_SCFIterInfo ] 1
    print[ P_OrbEn ] 0
    print[ P_Cartesian ] 0
end
*xyz 0 1
 C        1.6240580000    -0.1600980000    -0.7757710000 
 N        2.8222630000     0.2401510000    -0.0810790000 
 C        3.1959760000    -0.3139030000     1.0853240000 
 O        2.5903680000    -1.1853620000     1.6699480000 
 C        4.4964500000     0.2180970000     1.7033260000 
 C        5.1703310000     1.2589680000     0.9536120000 
 N        5.6581520000     2.0814530000     0.3143080000 
 H        1.8605290000    -0.5527650000    -1.7673720000 
 H        0.9355100000     0.6812190000    -0.8829870000 
 H        1.1427440000    -0.9408740000    -0.1896320000 
 H        3.4024930000     0.9602850000    -0.4801920000 
 H        5.1641600000    -0.6370950000     1.8318630000 
 H        4.2509570000     0.5822240000     2.7037620000 
*
