! RI PBE def2-SVP def2-SVP/J NBO PAL2
% maxcore 2000
% output
    # printlevel mini
    print[ P_Basis ] 0
    print[ P_SCFInfo ] 1
    print[ P_SCFIterInfo ] 1
    print[ P_OrbEn ] 0
    print[ P_Cartesian ] 0
end
*xyz 0 1
 C        0.9969820000     0.1092540000     0.0101270000 
 N        2.4307980000     0.1166750000    -0.2267100000 
 C        2.9934620000     1.1735720000    -0.9090040000 
 O        2.3756520000     2.1151000000    -1.3327630000 
 C        3.1634610000    -0.9650540000     0.2593100000 
 C        4.6520670000    -0.9928390000     0.0329160000 
 O        2.5918440000    -1.8510120000     0.8468430000 
 H        0.5865990000     1.0145220000    -0.4292760000 
 H        0.7955170000     0.0803460000     1.0807390000 
 H        0.5477930000    -0.7728200000    -0.4457360000 
 H        4.0815080000     1.0826110000    -1.0324680000 
 H        5.1481840000    -0.1377220000     0.4968220000 
 H        4.9000040000    -0.9914530000    -1.0306160000 
 H        5.0253300000    -1.9089800000     0.4843150000 
*
