! RI PBE def2-SVP def2-SVP/J NBO PAL2
% maxcore 2000
% output
    # printlevel mini
    print[ P_Basis ] 0
    print[ P_SCFInfo ] 1
    print[ P_SCFIterInfo ] 1
    print[ P_OrbEn ] 0
    print[ P_Cartesian ] 0
end
*xyz 0 1
 C        2.2089270000     1.3240870000    -0.2873420000 
 N        3.2218200000     0.5339420000     0.3587820000 
 C        2.9598260000    -0.6499310000     0.9397530000 
 O        1.8658970000    -1.1833860000     0.9707780000 
 C        4.1590550000    -1.3344200000     1.5870810000 
 C        4.4160300000    -2.6708510000     0.9193130000 
 O        5.2866930000    -0.4761290000     1.5273750000 
 H        2.4385280000     1.4749260000    -1.3456550000 
 H        2.1047500000     2.3015030000     0.1912990000 
 H        1.2648010000     0.7875230000    -0.2042680000 
 H        4.1716140000     0.8626730000     0.4180330000 
 H        3.8689210000    -1.4991580000     2.6332520000 
 H        4.7192710000    -2.5258930000    -0.1204520000 
 H        5.2058410000    -3.2179180000     1.4425840000 
 H        3.5078600000    -3.2734360000     0.9397590000 
 H        6.0738760000    -0.9908310000     1.7178980000 
*
