! RI PBE def2-SVP def2-SVP/J NBO PAL2
% maxcore 2000
% output
    # printlevel mini
    print[ P_Basis ] 0
    print[ P_SCFInfo ] 1
    print[ P_SCFIterInfo ] 1
    print[ P_OrbEn ] 0
    print[ P_Cartesian ] 0
end
*xyz 0 1
 C        0.7469230000    -0.1327540000    -0.1153430000 
 N        2.1775420000    -0.1929580000    -0.2402920000 
 C        3.0178860000     0.3490210000     0.6512830000 
 O        2.7096210000     0.9501730000     1.6624490000 
 C        4.4960530000     0.1335530000     0.2677550000 
 C        5.4959130000     0.7072500000     1.2120050000 
 O        4.7755630000    -0.4672180000    -0.7406240000 
 H        0.3145120000    -1.1346550000    -0.0528450000 
 H        0.2990410000     0.3898120000    -0.9644730000 
 H        0.5126090000     0.4114580000     0.7986580000 
 H        2.6155350000    -0.6565420000    -1.0223710000 
 H        5.3411210000     0.2873680000     2.2089900000 
 H        5.3277910000     1.7821460000     1.3148330000 
 H        6.5038810000     0.5039460000     0.8570740000 
*
