! RI PBE def2-SVP def2-SVP/J NBO PAL2
% maxcore 2000
% output
    # printlevel mini
    print[ P_Basis ] 0
    print[ P_SCFInfo ] 1
    print[ P_SCFIterInfo ] 1
    print[ P_OrbEn ] 0
    print[ P_Cartesian ] 0
end
*xyz 0 1
 C        2.9337670000    -1.6983330000     0.0777970000 
 N        3.9153080000    -0.6432450000     0.0887240000 
 C        3.6033950000     0.6381180000     0.3862920000 
 O        2.4829430000     1.0155990000     0.6666220000 
 C        4.7620130000     1.6154190000     0.3296140000 
 C        4.4709390000     2.7218680000    -0.6546220000 
 O        5.2750420000     3.1339750000    -1.4426370000 
 H        3.2016990000    -2.4923560000     0.7789600000 
 H        2.8259500000    -2.1290910000    -0.9209300000 
 H        1.9816770000    -1.2647700000     0.3790590000 
 H        4.8668290000    -0.8595160000    -0.1495670000 
 H        5.7265820000     1.1656990000     0.0904690000 
 H        4.8215520000     2.0778690000     1.3215570000 
 H        3.4452950000     3.1343650000    -0.5932360000 
*
