! RI PBE def2-SVP def2-SVP/J NBO PAL2
% maxcore 2000
% output
    # printlevel mini
    print[ P_Basis ] 0
    print[ P_SCFInfo ] 1
    print[ P_SCFIterInfo ] 1
    print[ P_OrbEn ] 0
    print[ P_Cartesian ] 0
end
*xyz 0 1
 C        0.7753150000     0.3358280000    -1.3142030000 
 N        1.7276190000    -0.3502260000    -2.1453880000 
 C        2.8743920000    -0.8515060000    -1.6101450000 
 O        3.7254310000    -1.4871480000    -2.4594080000 
 C        3.4166860000    -1.6109800000    -3.8275570000 
 N        3.1335230000    -0.7296060000    -0.3773880000 
 C        4.3667850000    -1.2850270000     0.1207980000 
 H       -0.0637000000     0.6543640000    -1.9334930000 
 H        1.2254240000     1.2118110000    -0.8401960000 
 H        0.4072450000    -0.3152420000    -0.5171710000 
 H        1.5376850000    -0.4549160000    -3.1209720000 
 H        4.2474960000    -2.1515110000    -4.2786030000 
 H        3.3324340000    -0.6343270000    -4.3173470000 
 H        2.4995680000    -2.1887090000    -3.9887110000 
 H        4.4326570000    -1.0934880000     1.1930460000 
 H        5.2513440000    -0.8421950000    -0.3542680000 
 H        4.4327950000    -2.3698320000    -0.0310940000 
*
