! RI PBE def2-SVP def2-SVP/J NBO PAL2
% maxcore 2000
% output
    # printlevel mini
    print[ P_Basis ] 0
    print[ P_SCFInfo ] 1
    print[ P_SCFIterInfo ] 1
    print[ P_OrbEn ] 0
    print[ P_Cartesian ] 0
end
*xyz 0 1
 C        0.4817960000    -0.2463720000     0.7821330000 
 N        1.8619170000    -0.2914880000     0.3725920000 
 C        2.4012210000     0.6798220000    -0.3814660000 
 O        1.7920760000     1.6564370000    -0.7753200000 
 C        3.8640680000     0.4967030000    -0.7343290000 
 O        4.3871310000    -0.6846410000    -0.1891600000 
 C        5.7408010000    -0.8760520000    -0.5050590000 
 H        0.2603770000    -1.1279110000     1.3823300000 
 H       -0.1832870000    -0.2288660000    -0.0844380000 
 H        0.2784670000     0.6486390000     1.3747410000 
 H        2.4593440000    -1.0543790000     0.6417900000 
 H        4.4038510000     1.3801830000    -0.3660110000 
 H        3.9402200000     0.4989680000    -1.8305870000 
 H        6.3610900000    -0.0571400000    -0.1176160000 
 H        5.8918790000    -0.9446590000    -1.5903970000 
 H        6.0576590000    -1.8107550000    -0.0427050000 
*
