! RI PBE def2-SVP def2-SVP/J NBO PAL2
% maxcore 2000
% output
    # printlevel mini
    print[ P_Basis ] 0
    print[ P_SCFInfo ] 1
    print[ P_SCFIterInfo ] 1
    print[ P_OrbEn ] 0
    print[ P_Cartesian ] 0
end
*xyz 0 1
 C        1.0638050000     1.9825190000     1.2904900000 
 N        2.5037540000     1.9929100000     1.3452420000 
 C        3.2090510000     1.0397670000     0.6714080000 
 O        2.6266720000     0.1815990000     0.0252970000 
 N        4.5810940000     1.0869240000     0.7509630000 
 C        5.3406040000     0.0872340000     0.0459500000 
 C        5.3675130000     2.0448130000     1.4762330000 
 H        0.6876120000     2.8142440000     1.8867930000 
 H        0.6575220000     1.0498630000     1.6882300000 
 H        0.7041140000     2.0914200000     0.2648790000 
 H        2.9564380000     2.7046900000     1.8809620000 
 H        4.6491440000    -0.5790360000    -0.4632100000 
 H        5.9578580000    -0.4943860000     0.7408610000 
 H        6.0048470000     0.5519820000    -0.6922760000 
 H        4.7626560000     2.7840540000     1.9954680000 
 H        6.0371440000     2.5900240000     0.7999170000 
 H        5.9895630000     1.5465690000     2.2298010000 
*
