! RI PBE def2-SVP def2-SVP/J NBO PAL2
% maxcore 2000
% output
    # printlevel mini
    print[ P_Basis ] 0
    print[ P_SCFInfo ] 1
    print[ P_SCFIterInfo ] 1
    print[ P_OrbEn ] 0
    print[ P_Cartesian ] 0
end
*xyz 0 1
 C        0.7816770000     0.7916580000    -2.0630730000 
 N        1.9052530000     1.0895060000    -2.5540720000 
 N        2.9100090000     1.1974580000    -1.5552950000 
 C        4.2144030000     0.9077480000    -2.1169230000 
 C        3.8163090000     2.3159470000    -1.8919410000 
 C        4.3400850000     3.0585040000    -0.7245500000 
 O        4.7197940000     4.1962440000    -0.7714480000 
 H       -0.0536540000     0.6846910000    -2.7488920000 
 H        0.6303400000     0.6412320000    -0.9931340000 
 H        4.2408370000     0.5813800000    -3.1503820000 
 H        4.8998820000     0.4171290000    -1.4352630000 
 H        3.5654610000     2.9028420000    -2.7681220000 
 H        4.3676940000     2.4697710000     0.2171930000 
*
