! RI PBE def2-SVP def2-SVP/J NBO PAL2
% maxcore 2000
% output
    # printlevel mini
    print[ P_Basis ] 0
    print[ P_SCFInfo ] 1
    print[ P_SCFIterInfo ] 1
    print[ P_OrbEn ] 0
    print[ P_Cartesian ] 0
end
*xyz 0 1
 C        2.2677420000    -0.8175380000     0.6909830000 
 N        2.6650880000    -0.0027500000    -0.2033310000 
 N        3.0437090000    -0.4955570000    -1.3926420000 
 C        3.5278120000     0.2505520000    -2.5458920000 
 C        3.6603900000    -1.1023600000    -3.2739980000 
 C        3.1385540000    -1.7405140000    -1.9855130000 
 O        2.8923980000    -2.8452300000    -1.5896260000 
 H        1.9721850000    -0.3808990000     1.6386240000 
 H        2.2165110000    -1.8946660000     0.5502920000 
 H        4.4652640000     0.7776110000    -2.3588950000 
 H        2.7870280000     0.9368850000    -2.9603240000 
 H        4.6757730000    -1.4017120000    -3.5315940000 
 H        3.0024360000    -1.2432220000    -4.1308730000 
*
