! RI PBE def2-SVP def2-SVP/J NBO PAL2
% maxcore 2000
% output
    # printlevel mini
    print[ P_Basis ] 0
    print[ P_SCFInfo ] 1
    print[ P_SCFIterInfo ] 1
    print[ P_OrbEn ] 0
    print[ P_Cartesian ] 0
end
*xyz 0 1
 C        2.8460630000     0.4739580000    -0.7248120000 
 N        2.5860670000     0.3228760000     0.7006330000 
 N        3.0749240000    -0.8549620000     1.2161420000 
 C        4.1273330000    -1.0823830000     2.1997340000 
 C        3.7452900000    -2.5760890000     2.1380280000 
 C        2.6481510000    -2.1531920000     1.1511900000 
 O        1.7432550000    -2.6791440000     0.5629220000 
 H        2.3862430000     1.4065230000    -1.0570670000 
 H        2.4551150000    -0.3533100000    -1.3275460000 
 H        3.9224560000     0.5529100000    -0.8863140000 
 H        1.5909490000     0.3674600000     0.8890700000 
 H        3.9412830000    -0.5965320000     3.1607880000 
 H        5.1297370000    -0.8324380000     1.8446230000 
 H        3.3618090000    -3.0001730000     3.0651880000 
 H        4.4957160000    -3.2374140000     1.7067310000 
*
