! RI PBE def2-SVP def2-SVP/J NBO PAL2
% maxcore 2000
% output
    # printlevel mini
    print[ P_Basis ] 0
    print[ P_SCFInfo ] 1
    print[ P_SCFIterInfo ] 1
    print[ P_OrbEn ] 0
    print[ P_Cartesian ] 0
end
*xyz 0 1
 C        2.8921260000     1.6045390000     1.9071300000 
 N        3.7782690000     0.7614950000     1.5676310000 
 N        3.6867450000    -0.5027970000     2.0163150000 
 C        4.3610650000    -1.4983680000     1.2187490000 
 C        4.6406010000    -2.7187630000     2.0467310000 
 C        3.7328080000    -3.8641680000     2.0512730000 
 O        4.9498960000    -3.8969700000     1.3268930000 
 H        3.0152960000     2.6293340000     1.5794230000 
 H        2.0231680000     1.3466070000     2.5216330000 
 H        2.7680300000    -0.7795730000     2.3537970000 
 H        5.2987270000    -1.0521140000     0.8808590000 
 H        3.7958850000    -1.7947380000     0.3228680000 
 H        5.2550530000    -2.5500210000     2.9298620000 
 H        2.8330530000    -3.8334030000     1.4396410000 
 H        3.6896880000    -4.5162520000     2.9198940000 
*
