! RI PBE def2-SVP def2-SVP/J NBO PAL2
% maxcore 2000
% output
    # printlevel mini
    print[ P_Basis ] 0
    print[ P_SCFInfo ] 1
    print[ P_SCFIterInfo ] 1
    print[ P_OrbEn ] 0
    print[ P_Cartesian ] 0
end
*xyz 0 1
 C        1.9430170000    -1.0959310000    -0.6156030000 
 N        2.7755790000    -0.3014640000     0.2536600000 
 N        3.1763000000     0.8722520000    -0.2631320000 
 C        4.2289440000     1.4263470000     0.1859610000 
 C        4.6264870000     2.7481650000    -0.3108100000 
 C        5.4035250000     3.6741490000     0.5147490000 
 O        6.0253520000     2.9444500000    -0.5235430000 
 H        1.5501450000    -1.9413490000    -0.0484700000 
 H        2.4721270000    -1.4758970000    -1.4994210000 
 H        1.1053060000    -0.4849970000    -0.9522470000 
 H        3.4982030000    -0.8241030000     0.7411390000 
 H        4.8689760000     0.9559990000     0.9430370000 
 H        3.9809350000     3.1548290000    -1.0852400000 
 H        5.6841460000     3.3809410000     1.5243610000 
 H        5.3080490000     4.7445090000     0.3469500000 
*
