! RI PBE def2-SVP def2-SVP/J NBO PAL2
% maxcore 2000
% output
    # printlevel mini
    print[ P_Basis ] 0
    print[ P_SCFInfo ] 1
    print[ P_SCFIterInfo ] 1
    print[ P_OrbEn ] 0
    print[ P_Cartesian ] 0
end
*xyz 0 1
 C        1.4119380000     0.8215050000    -0.2397240000 
 N        2.6615040000     0.6242110000    -0.1350750000 
 N        3.2283470000     0.7793820000     1.0698300000 
 C        4.5561920000     0.5808760000     1.2336710000 
 C        5.2336970000     0.7065480000     2.3910080000 
 C        6.6570000000     0.4606960000     2.4100650000 
 O        7.3675020000     0.5421500000     3.3862670000 
 H        0.9648730000     0.6935010000    -1.2170480000 
 H        0.7754440000     1.1111090000     0.6012480000 
 H        2.6556710000     1.0476360000     1.8633510000 
 H        5.0618290000     0.2980350000     0.3155230000 
 H        4.7519230000     0.9879220000     3.3220360000 
 H        7.0858790000     0.1764300000     1.4218390000 
*
