! RI PBE def2-SVP def2-SVP/J NBO PAL2
% maxcore 2000
% output
    # printlevel mini
    print[ P_Basis ] 0
    print[ P_SCFInfo ] 1
    print[ P_SCFIterInfo ] 1
    print[ P_OrbEn ] 0
    print[ P_Cartesian ] 0
end
*xyz 0 1
 C        0.8679950000    -0.3954210000     0.2055810000 
 N        2.3059870000    -0.3888480000     0.1148010000 
 N        2.9857040000     0.6157910000    -0.4618020000 
 C        2.3623930000     1.6091930000    -0.9533370000 
 C        3.0419700000    -1.4461970000     0.6333020000 
 C        4.5339680000    -1.3547940000     0.4945040000 
 O        2.4846380000    -2.3805980000     1.1645710000 
 H        0.5132460000     0.4677600000     0.7770920000 
 H        0.5807610000    -1.3128030000     0.7119720000 
 H        0.4179490000    -0.3684390000    -0.7915600000 
 H        2.9689710000     2.3858810000    -1.4039840000 
 H        1.2804630000     1.7296520000    -0.9518710000 
 H        4.9184480000    -0.4615930000     0.9881630000 
 H        4.8255350000    -1.2831270000    -0.5538960000 
 H        4.9591630000    -2.2485780000     0.9450630000 
*
