! RI PBE def2-SVP def2-SVP/J NBO PAL2
% maxcore 2000
% output
    # printlevel mini
    print[ P_Basis ] 0
    print[ P_SCFInfo ] 1
    print[ P_SCFIterInfo ] 1
    print[ P_OrbEn ] 0
    print[ P_Cartesian ] 0
end
*xyz 0 1
 C        3.2756220000     0.3654450000     1.7757410000 
 N        4.3185820000     0.2352050000     0.7958330000 
 N        4.0337370000     0.3998000000    -0.4676670000 
 C        4.9665100000     0.2840450000    -1.3579990000 
 C        6.3927320000    -0.0321830000    -1.0691600000 
 C        4.5119880000     0.4925870000    -2.7277160000 
 O        5.2243570000     0.4291090000    -3.7040200000 
 H        3.7052690000     0.1944590000     2.7627450000 
 H        2.4823650000    -0.3680220000     1.6084940000 
 H        2.8364320000     1.3663840000     1.7548370000 
 H        5.2615520000     0.0183680000     1.0860620000 
 H        6.4996250000    -1.0030550000    -0.5709550000 
 H        6.8534010000     0.7260800000    -0.4249230000 
 H        6.9461960000    -0.0662270000    -2.0070480000 
 H        3.4302520000     0.7204170000    -2.8031220000 
*
