! RI PBE def2-SVP def2-SVP/J NBO PAL2
% maxcore 2000
% output
    # printlevel mini
    print[ P_Basis ] 0
    print[ P_SCFInfo ] 1
    print[ P_SCFIterInfo ] 1
    print[ P_OrbEn ] 0
    print[ P_Cartesian ] 0
end
*xyz 0 1
 C        1.6264550000     0.4885500000     0.3680430000 
 N        2.9071760000     0.0555360000    -0.1154060000 
 N        3.4038380000    -1.0819310000     0.2919500000 
 C        4.5487360000    -1.4778960000    -0.1350050000 
 C        5.1132200000    -2.7514140000     0.3161430000 
 C        4.3205170000    -3.5815340000     1.2896700000 
 O        6.1980670000    -3.1068970000    -0.1002560000 
 H        1.3947030000     1.4514100000    -0.0872670000 
 H        1.6315180000     0.6112800000     1.4547760000 
 H        0.8385390000    -0.2206340000     0.0991220000 
 H        3.4261080000     0.6275120000    -0.7696040000 
 H        5.1516580000    -0.9000430000    -0.8424370000 
 H        4.1278750000    -3.0183670000     2.2053020000 
 H        4.8807020000    -4.4864020000     1.5175330000 
 H        3.3460970000    -3.8388690000     0.8690340000 
*
