! RI PBE def2-SVP def2-SVP/J NBO PAL2
% maxcore 2000
% output
    # printlevel mini
    print[ P_Basis ] 0
    print[ P_SCFInfo ] 1
    print[ P_SCFIterInfo ] 1
    print[ P_OrbEn ] 0
    print[ P_Cartesian ] 0
end
*xyz 0 1
 C        2.7052920000     0.6227560000     1.1285170000 
 N        2.7759750000    -0.1440220000    -0.1085310000 
 N        3.1427300000    -1.4740400000     0.1392830000 
 C        2.0422710000    -2.4019320000     0.1312800000 
 C        4.4614630000    -1.7937010000     0.0327090000 
 C        4.8400710000    -3.2476180000     0.1630300000 
 O        5.2989140000    -0.9291240000    -0.1714920000 
 H        2.4773150000     1.6590180000     0.8717970000 
 H        3.6355420000     0.5934450000     1.7077470000 
 H        1.8881850000     0.2466250000     1.7481640000 
 H        3.5312500000     0.2343190000    -0.6742640000 
 H        1.2674950000    -2.0559140000     0.8187450000 
 H        2.3712640000    -3.3845900000     0.4616430000 
 H        1.5996850000    -2.4842460000    -0.8669300000 
 H        4.5120140000    -3.6685840000     1.1157740000 
 H        5.9237790000    -3.3094410000     0.0987130000 
 H        4.4018530000    -3.8470620000    -0.6384850000 
*
