! RI PBE def2-SVP def2-SVP/J NBO PAL2
% maxcore 2000
% output
    # printlevel mini
    print[ P_Basis ] 0
    print[ P_SCFInfo ] 1
    print[ P_SCFIterInfo ] 1
    print[ P_OrbEn ] 0
    print[ P_Cartesian ] 0
end
*xyz 0 1
 C        3.6309720000     1.3251120000    -2.1929390000 
 N        3.5211590000     0.5702010000    -0.9642780000 
 N        4.6855790000    -0.1331340000    -0.7051740000 
 C        4.8293600000    -0.6137660000     0.4595050000 
 C        3.8824570000    -0.4737810000     1.6008550000 
 O        5.9207090000    -1.3435890000     0.7649830000 
 C        6.8607570000    -1.5257430000    -0.2767320000 
 H        4.4624270000     2.0432880000    -2.1950780000 
 H        2.6946850000     1.8632210000    -2.3542170000 
 H        3.7767180000     0.6335170000    -3.0236840000 
 H        3.2653430000     1.1788250000    -0.1927040000 
 H        3.8885170000     0.5477400000     1.9959580000 
 H        4.1577540000    -1.1513100000     2.4067850000 
 H        2.8652580000    -0.6925760000     1.2657270000 
 H        7.6627240000    -2.1272190000     0.1482810000 
 H        7.2468060000    -0.5648330000    -0.6259930000 
 H        6.4069770000    -2.0404430000    -1.1269150000 
*
