! RI PBE def2-SVP def2-SVP/J NBO PAL2
% maxcore 2000
% output
    # printlevel mini
    print[ P_Basis ] 0
    print[ P_SCFInfo ] 1
    print[ P_SCFIterInfo ] 1
    print[ P_OrbEn ] 0
    print[ P_Cartesian ] 0
end
*xyz 0 1
 C        1.3399490000    -0.6505000000     0.8337470000 
 N        2.5390760000    -0.3023310000     0.6165660000 
 N        3.1753960000    -0.8560380000    -0.4245440000 
 C        4.4717170000    -0.5534070000    -0.7515580000 
 O        5.0129150000    -1.0748430000    -1.7002650000 
 C        5.1320600000     0.4126030000     0.0996990000 
 C        5.7656690000     1.2014820000     0.7434360000 
 H        0.8322760000    -0.1990360000     1.6770350000 
 H        0.8012170000    -1.3763980000     0.2177560000 
 H        2.7176290000    -1.5350670000    -1.0263030000 
 H        6.3223760000     1.9031450000     1.3197310000 
*
