! RI PBE def2-SVP def2-SVP/J NBO PAL2
% maxcore 2000
% output
    # printlevel mini
    print[ P_Basis ] 0
    print[ P_SCFInfo ] 1
    print[ P_SCFIterInfo ] 1
    print[ P_OrbEn ] 0
    print[ P_Cartesian ] 0
end
*xyz 0 1
 C        4.8259430000    -2.3327070000     0.6640090000 
 N        4.4272570000    -1.5530300000    -0.4645150000 
 N        5.0286230000    -0.3761470000    -0.6773760000 
 C        4.7029110000     0.3409620000    -1.6612690000 
 O        5.2730980000     1.5443760000    -1.9349050000 
 C        6.2521390000     2.0170360000    -1.1152100000 
 C        6.8256350000     3.1863330000    -1.3526620000 
 H        4.2318430000    -3.2476140000     0.6744700000 
 H        4.6541350000    -1.8058840000     1.6099980000 
 H        5.8839650000    -2.6158780000     0.6157190000 
 H        3.7071160000    -1.8763760000    -1.0890070000 
 H        3.9426850000     0.1015520000    -2.4045660000 
 H        6.5075740000     1.3721340000    -0.2838600000 
 H        6.5394430000     3.8009200000    -2.1969000000 
 H        7.6009250000     3.5411230000    -0.6886480000 
*
