! RI PBE def2-SVP def2-SVP/J NBO PAL2
% maxcore 2000
% output
    # printlevel mini
    print[ P_Basis ] 0
    print[ P_SCFInfo ] 1
    print[ P_SCFIterInfo ] 1
    print[ P_OrbEn ] 0
    print[ P_Cartesian ] 0
end
*xyz 0 1
 C        2.0018080000     0.4331560000    -1.2847560000 
 N        2.4739060000     0.0188030000     0.0309180000 
 N        3.1446120000     1.0477590000     0.6835380000 
 C        4.4981740000     1.1636290000     0.5953110000 
 O        5.1561550000     0.4674220000    -0.1562470000 
 C        5.0763720000     2.1999560000     1.4872840000 
 C        6.3839810000     2.4130230000     1.5168940000 
 H        1.5626600000    -0.4381530000    -1.7742170000 
 H        2.7973420000     0.8382120000    -1.9203700000 
 H        1.2198680000     1.1857420000    -1.1691840000 
 H        3.1575200000    -0.7238380000    -0.0869640000 
 H        2.6618710000     1.4460420000     1.4722570000 
 H        4.3982320000     2.7818130000     2.1056230000 
 H        7.0389060000     1.8209190000     0.8869670000 
 H        6.8246830000     3.1684050000     2.1559470000 
*
