! RI PBE def2-SVP def2-SVP/J NBO PAL2
% maxcore 2000
% output
    # printlevel mini
    print[ P_Basis ] 0
    print[ P_SCFInfo ] 1
    print[ P_SCFIterInfo ] 1
    print[ P_OrbEn ] 0
    print[ P_Cartesian ] 0
end
*xyz 0 1
 C        2.1905750000     0.1925250000    -1.2057560000 
 N        2.4027710000     0.0225600000     0.2268820000 
 N        3.0125970000     1.1314100000     0.7984370000 
 C        4.3639670000     1.2440850000     0.8472820000 
 O        5.1224300000     0.4572450000     0.3184230000 
 C        4.8200830000     2.3982230000     1.6055700000 
 C        5.2222880000     3.3445160000     2.2244000000 
 H        1.7783100000    -0.7397890000    -1.5955880000 
 H        3.1079270000     0.4352100000    -1.7532060000 
 H        1.4556740000     0.9822070000    -1.3702480000 
 H        3.0293170000    -0.7615250000     0.3804590000 
 H        2.4428080000     1.6972980000     1.4061540000 
 H        5.5931620000     4.1805260000     2.7706020000 
*
