! RI PBE def2-SVP def2-SVP/J NBO PAL2
% maxcore 2000
% output
    # printlevel mini
    print[ P_Basis ] 0
    print[ P_SCFInfo ] 1
    print[ P_SCFIterInfo ] 1
    print[ P_OrbEn ] 0
    print[ P_Cartesian ] 0
end
*xyz 0 1
 C        1.4366200000    -1.1468050000     1.8413210000 
 N        2.6999750000    -1.1089180000     1.7997700000 
 O        3.1647810000     0.0314950000     1.1951920000 
 C        4.5745690000     0.0700460000     1.2470210000 
 C        5.1931290000     1.2115680000     0.4444720000 
 C        6.2389610000     1.3503420000     1.5708220000 
 C        5.2598160000     0.6142590000     2.5082680000 
 H        0.9930390000    -2.0244090000     2.2954360000 
 H        0.8094500000    -0.3493970000     1.4449390000 
 H        4.9709880000    -0.9079780000     0.9606350000 
 H        4.5139600000     2.0669220000     0.4331840000 
 H        5.5290940000     1.0043770000    -0.5718370000 
 H        6.5469320000     2.3575900000     1.8501120000 
 H        7.1316800000     0.7556310000     1.3685830000 
 H        4.5967390000     1.3170340000     3.0177380000 
 H        5.6545760000    -0.1009660000     3.2298550000 
*
