! RI PBE def2-SVP def2-SVP/J NBO PAL2
% maxcore 2000
% output
    # printlevel mini
    print[ P_Basis ] 0
    print[ P_SCFInfo ] 1
    print[ P_SCFIterInfo ] 1
    print[ P_OrbEn ] 0
    print[ P_Cartesian ] 0
end
*xyz 0 1
 C        2.7546760000     0.9555910000     0.0359460000 
 N        3.4583310000    -0.0951190000     0.0112600000 
 O        3.8471650000    -0.4877100000     1.2644700000 
 C        4.6462980000    -1.6622270000     1.1733730000 
 C        4.9659540000    -2.1168220000     2.5570580000 
 C        6.2316220000    -2.8863670000     2.7856630000 
 C        6.1031040000    -1.4869210000     3.3001880000 
 H        2.4065710000     1.3282980000    -0.9195890000 
 H        2.5005750000     1.4731250000     0.9600920000 
 H        5.5659060000    -1.4359650000     0.6203740000 
 H        4.0930110000    -2.4267370000     0.6176920000 
 H        4.1055440000    -2.4136050000     3.1474790000 
 H        6.8798260000    -3.0569830000     1.9341710000 
 H        6.2069650000    -3.7018410000     3.4970680000 
 H        6.6582750000    -0.7069900000     2.7929190000 
 H        5.9950480000    -1.3396360000     4.3671370000 
*
