! RI PBE def2-SVP def2-SVP/J NBO PAL2
% maxcore 2000
% output
    # printlevel mini
    print[ P_Basis ] 0
    print[ P_SCFInfo ] 1
    print[ P_SCFIterInfo ] 1
    print[ P_OrbEn ] 0
    print[ P_Cartesian ] 0
end
*xyz 0 1
 C        1.0950800000    -0.1783490000     0.1230330000 
 N        2.3585150000    -0.1360100000     0.1362720000 
 O        2.8486630000     0.2373470000     1.3635370000 
 C        4.2656100000     0.2192890000     1.3384900000 
 C        4.7382910000     0.8479320000     2.6128820000 
 C        5.0523410000     0.0386510000     3.7840550000 
 O        6.0810890000     0.5613110000     2.9581370000 
 H        0.6312150000    -0.4608670000    -0.8139890000 
 H        0.4874250000     0.0545520000     0.9963100000 
 H        4.6256370000     0.7824390000     0.4716350000 
 H        4.6400210000    -0.8075730000     1.2669490000 
 H        4.4391750000     1.8836300000     2.7655960000 
 H        4.9192640000    -1.0393720000     3.7337570000 
 H        4.9842530000     0.4795080000     4.7749450000 
*
