! RI PBE def2-SVP def2-SVP/J NBO PAL2
% maxcore 2000
% output
    # printlevel mini
    print[ P_Basis ] 0
    print[ P_SCFInfo ] 1
    print[ P_SCFIterInfo ] 1
    print[ P_OrbEn ] 0
    print[ P_Cartesian ] 0
end
*xyz 0 1
 C        1.1678960000    -0.4526720000    -0.3168980000 
 N        2.4166130000    -0.2565880000    -0.2898360000 
 O        3.1159960000    -1.3053560000    -0.8311870000 
 C        4.5061660000    -1.0320470000    -0.7727150000 
 C        5.2060140000    -2.2285250000    -1.3928320000 
 C        6.6488440000    -2.0672720000    -1.3910130000 
 C        7.8392270000    -1.9159690000    -1.3806280000 
 H        0.5463130000     0.3331910000     0.0941990000 
 H        0.7212860000    -1.3573560000    -0.7270700000 
 H        4.8175720000    -0.8938110000     0.2667560000 
 H        4.7317660000    -0.1171220000    -1.3281140000 
 H        4.8492760000    -2.3639800000    -2.4188430000 
 H        4.9333250000    -3.1331770000    -0.8400820000 
 H        8.8957160000    -1.7880260000    -1.3744560000 
*
