! RI PBE def2-SVP def2-SVP/J NBO PAL2
% maxcore 2000
% output
    # printlevel mini
    print[ P_Basis ] 0
    print[ P_SCFInfo ] 1
    print[ P_SCFIterInfo ] 1
    print[ P_OrbEn ] 0
    print[ P_Cartesian ] 0
end
*xyz 0 1
 C        1.4685970000    -0.7349000000     2.3538490000 
 N        2.6979730000    -0.8011200000     2.0672200000 
 O        2.9050100000    -1.1233190000     0.7470650000 
 C        4.2981710000    -1.1929400000     0.4849290000 
 C        4.9446880000    -2.4390360000     1.0701110000 
 C        4.4423110000    -3.7113880000     0.4541280000 
 O        5.1490510000    -4.6172960000     0.1034480000 
 H        1.2236360000    -0.4751160000     3.3763650000 
 H        0.6821670000    -0.9218230000     1.6241170000 
 H        4.7875010000    -0.2972900000     0.8768610000 
 H        4.3723490000    -1.1800410000    -0.6047860000 
 H        4.7133840000    -2.4648370000     2.1421780000 
 H        6.0309130000    -2.3999280000     0.9614810000 
 H        3.3400580000    -3.7782660000     0.3353210000 
*
