! RI PBE def2-SVP def2-SVP/J NBO PAL2
% maxcore 2000
% output
    # printlevel mini
    print[ P_Basis ] 0
    print[ P_SCFInfo ] 1
    print[ P_SCFIterInfo ] 1
    print[ P_OrbEn ] 0
    print[ P_Cartesian ] 0
end
*xyz 0 1
 C        2.3311470000     0.0468370000     1.6670730000 
 N        2.1512230000     0.1664530000     0.2331060000 
 O        1.4800330000    -0.9798670000    -0.2172410000 
 C        3.2865540000     0.4458700000    -0.5556040000 
 N        3.6184740000    -0.1760010000    -1.6096280000 
 C        4.0392100000     1.6350560000    -0.1035390000 
 C        5.3008330000     1.8483180000    -0.4515800000 
 H        2.8510950000    -0.8820300000     1.9291020000 
 H        1.3546540000     0.0589110000     2.1513090000 
 H        2.9154900000     0.8904310000     2.0304450000 
 H        0.6754160000    -0.6371980000    -0.6203900000 
 H        3.0074750000    -0.9807060000    -1.7395980000 
 H        3.5097660000     2.3527310000     0.5149690000 
 H        5.8246720000     1.1329650000    -1.0750380000 
 H        5.8283590000     2.7400300000    -0.1349650000 
*
