! RI PBE def2-SVP def2-SVP/J NBO PAL2
% maxcore 2000
% output
    # printlevel mini
    print[ P_Basis ] 0
    print[ P_SCFInfo ] 1
    print[ P_SCFIterInfo ] 1
    print[ P_OrbEn ] 0
    print[ P_Cartesian ] 0
end
*xyz 0 1
 C        0.9139070000    -0.0524590000     0.4231570000 
 N        2.1830140000     0.2036170000    -0.2254780000 
 O        2.8701210000    -0.9988880000    -0.4120340000 
 C        3.0316520000     1.1999640000     0.2803540000 
 N        4.2958620000     1.1411860000     0.3698810000 
 C        2.3514330000     2.4188010000     0.6341920000 
 C        1.8059370000     3.4454970000     0.9311250000 
 H        0.2911070000    -0.6498000000    -0.2426700000 
 H        0.4211240000     0.8999970000     0.6090770000 
 H        1.0452900000    -0.5867740000     1.3708290000 
 H        2.9034480000    -1.1083540000    -1.3687300000 
 H        4.6079990000     0.2074700000     0.1042610000 
 H        1.3364060000     4.3628540000     1.1989370000 
*
