! RI PBE def2-SVP def2-SVP/J NBO PAL2
% maxcore 2000
% output
    # printlevel mini
    print[ P_Basis ] 0
    print[ P_SCFInfo ] 1
    print[ P_SCFIterInfo ] 1
    print[ P_OrbEn ] 0
    print[ P_Cartesian ] 0
end
*xyz 0 1
 C        0.9629520000     0.6207720000     0.0102750000 
 N        2.1781620000     0.2892830000     0.0862870000 
 O        2.9269650000     1.3624020000     0.5778060000 
 C        4.2535270000     1.0773270000     0.6879830000 
 O        4.7821960000     0.0473650000     0.4132280000 
 C        4.9319470000     2.2461370000     1.2014800000 
 C        5.5496480000     3.1827370000     1.6246280000 
 H        0.2878860000    -0.1414150000    -0.3614280000 
 H        0.5890570000     1.6032490000     0.2934430000 
 H        6.1010590000     4.0137340000     1.9993080000 
*
