! RI PBE def2-SVP def2-SVP/J NBO PAL2
% maxcore 2000
% output
    # printlevel mini
    print[ P_Basis ] 0
    print[ P_SCFInfo ] 1
    print[ P_SCFIterInfo ] 1
    print[ P_OrbEn ] 0
    print[ P_Cartesian ] 0
end
*xyz 0 1
 C        1.0744870000     0.5865700000    -0.2632320000 
 N        2.4737310000     0.2840870000    -0.1312510000 
 O        2.8028290000    -1.0173210000    -0.4804960000 
 C        3.2801890000     0.9483740000     0.7578250000 
 O        2.9068080000     1.9873560000     1.2695460000 
 C        4.6211390000     0.3588890000     1.0045570000 
 C        5.4712930000     0.9907040000     1.8029920000 
 H        0.7815280000     0.5689540000    -1.3157340000 
 H        0.9163600000     1.5825470000     0.1441770000 
 H        0.4693360000    -0.1388020000     0.2889050000 
 H        3.0642750000    -0.9733300000    -1.4082020000 
 H        4.8735610000    -0.5829090000     0.5369530000 
 H        5.1858620000     1.9287170000     2.2664590000 
 H        6.4560950000     0.5897750000     2.0106120000 
*
