! RI PBE def2-SVP def2-SVP/J NBO PAL2
% maxcore 2000
% output
    # printlevel mini
    print[ P_Basis ] 0
    print[ P_SCFInfo ] 1
    print[ P_SCFIterInfo ] 1
    print[ P_OrbEn ] 0
    print[ P_Cartesian ] 0
end
*xyz 0 1
 C        1.7062360000     0.0524060000     0.5199660000 
 O        1.1736410000     0.9555730000    -0.4163760000 
 C        2.1244670000     1.3996990000    -1.3204650000 
 C        1.8176490000     2.6604130000    -2.0471780000 
 C        2.9375620000     2.6383770000    -1.0380490000 
 C        2.7349850000     3.3724460000     0.2615590000 
 N        4.2551330000     2.6262610000    -1.6127840000 
 H        0.8898560000    -0.2602940000     1.1714830000 
 H        2.4929700000     0.5162540000     1.1278690000 
 H        2.1255750000    -0.8337140000     0.0251160000 
 H        2.6398060000     0.6124680000    -1.8694940000 
 H        0.9054150000     3.1667360000    -1.7553170000 
 H        2.0782560000     2.7212880000    -3.0957600000 
 H        1.7259710000     3.2235290000     0.6497690000 
 H        2.8946260000     4.4467030000     0.1259110000 
 H        3.4447000000     3.0246520000     1.0193090000 
 H        4.5375000000     3.5631020000    -1.8789340000 
 H        4.9357320000     2.2853300000    -0.9432560000 
*
