! RI PBE def2-SVP def2-SVP/J NBO PAL2
% maxcore 2000
% output
    # printlevel mini
    print[ P_Basis ] 0
    print[ P_SCFInfo ] 1
    print[ P_SCFIterInfo ] 1
    print[ P_OrbEn ] 0
    print[ P_Cartesian ] 0
end
*xyz 0 1
 C        1.0881300000    -0.0584830000     0.2099580000 
 O        2.4821560000    -0.0449480000     0.0654160000 
 C        2.9190400000    -0.5893920000    -1.1427140000 
 C        4.4332640000    -0.6080360000    -1.3379060000 
 C        4.2712470000    -1.9557070000    -2.0654480000 
 C        2.9134420000    -2.1277180000    -1.3646540000 
 N        1.8870490000    -2.8354980000    -2.0820200000 
 H        0.8484580000     0.4640580000     1.1365290000 
 H        0.6896700000    -1.0796580000     0.2732770000 
 H        0.5921270000     0.4550810000    -0.6260330000 
 H        2.4123360000    -0.0971550000    -1.9911060000 
 H        4.9272000000    -0.7305470000    -0.3720630000 
 H        4.8904030000     0.2237250000    -1.8728870000 
 H        5.0242350000    -2.7271410000    -1.9075680000 
 H        4.1328310000    -1.8174670000    -3.1413020000 
 H        3.0613560000    -2.6078540000    -0.3914590000 
 H        1.6597050000    -2.3669280000    -2.9506970000 
 H        1.0352310000    -2.9174230000    -1.5425350000 
*
