! RI PBE def2-SVP def2-SVP/J NBO PAL2
% maxcore 2000
% output
    # printlevel mini
    print[ P_Basis ] 0
    print[ P_SCFInfo ] 1
    print[ P_SCFIterInfo ] 1
    print[ P_OrbEn ] 0
    print[ P_Cartesian ] 0
end
*xyz 0 1
 C        2.4080760000     0.3913910000     0.8883350000 
 O        3.4395280000     0.7166570000    -0.0205170000 
 C        2.9812150000     1.1161950000    -1.2796500000 
 C        2.1933940000     0.0897650000    -2.0421540000 
 C        3.9442560000     1.9931270000    -2.0127450000 
 C        2.6700500000     2.5771480000    -1.4334390000 
 N        2.6745450000     3.4141220000    -0.2714540000 
 H        2.8738850000     0.2893480000     1.8690870000 
 H        1.9260190000    -0.5591770000     0.6337660000 
 H        1.6475340000     1.1789110000     0.9300100000 
 H        1.2516910000    -0.1567800000    -1.5454470000 
 H        2.7769860000    -0.8278640000    -2.1575000000 
 H        1.9507380000     0.4666020000    -3.0371040000 
 H        4.0429240000     1.8680290000    -3.0848780000 
 H        4.8604320000     2.2346080000    -1.4863650000 
 H        1.8829290000     2.8251910000    -2.1393950000 
 H        3.0501130000     4.3284730000    -0.4931060000 
 H        3.2798030000     3.0050530000     0.4313670000 
*
