! RI PBE def2-SVP def2-SVP/J NBO PAL2
% maxcore 2000
% output
    # printlevel mini
    print[ P_Basis ] 0
    print[ P_SCFInfo ] 1
    print[ P_SCFIterInfo ] 1
    print[ P_OrbEn ] 0
    print[ P_Cartesian ] 0
end
*xyz 0 1
 C        1.3729640000     0.6729380000    -1.0563450000 
 O        2.0625700000    -0.1561950000    -0.1561420000 
 C        2.8117130000    -1.1269690000    -0.8002510000 
 C        3.0620120000    -2.4041940000    -0.0609430000 
 C        2.5263130000    -2.6235420000     1.3252800000 
 C        2.1544730000    -2.4062360000    -1.2550680000 
 N        2.5220700000    -3.1210530000    -2.4409130000 
 H        0.8098730000     1.3974980000    -0.4674770000 
 H        0.6773480000     0.0976760000    -1.6804540000 
 H        2.0663290000     1.2132760000    -1.7151960000 
 H        3.6195730000    -0.7383720000    -1.4238640000 
 H        4.0458530000    -2.8326240000    -0.2390470000 
 H        3.2164360000    -2.2347500000     2.0783790000 
 H        1.5724500000    -2.1130480000     1.4605990000 
 H        2.3781890000    -3.6889200000     1.5189060000 
 H        1.0969640000    -2.4733020000    -1.0089340000 
 H        3.5051430000    -3.3559020000    -2.4408060000 
 H        2.3317250000    -2.5830780000    -3.2772140000 
*
