! RI PBE def2-SVP def2-SVP/J NBO PAL2
% maxcore 2000
% output
    # printlevel mini
    print[ P_Basis ] 0
    print[ P_SCFInfo ] 1
    print[ P_SCFIterInfo ] 1
    print[ P_OrbEn ] 0
    print[ P_Cartesian ] 0
end
*xyz 0 1
 C        2.3254170000    -1.4950650000     0.2819050000 
 O        2.2720890000    -0.0920050000     0.2647560000 
 C        2.9701360000     0.5625520000     1.2128900000 
 C        3.0638110000     1.9174610000     1.3920820000 
 C        3.9094610000     2.1176940000     2.5157950000 
 C        4.2984480000     0.8933080000     2.9785650000 
 N        3.7158280000    -0.0582860000     2.1709900000 
 H        1.7082400000    -1.8384280000    -0.5463230000 
 H        1.9194530000    -1.9049950000     1.2153410000 
 H        3.3481890000    -1.8639610000     0.1334380000 
 H        2.5793510000     2.6633180000     0.7836900000 
 H        4.1985330000     3.0681500000     2.9362400000 
 H        4.9315390000     0.6081210000     3.8020730000 
 H        3.8268050000    -1.0489640000     2.2765480000 
*
