! RI PBE def2-SVP def2-SVP/J NBO PAL2
% maxcore 2000
% output
    # printlevel mini
    print[ P_Basis ] 0
    print[ P_SCFInfo ] 1
    print[ P_SCFIterInfo ] 1
    print[ P_OrbEn ] 0
    print[ P_Cartesian ] 0
end
*xyz 0 1
 C        1.8229250000    -0.0632580000     1.0695190000 
 O        3.0919760000     0.1949260000     0.5285610000 
 C        3.0979350000     1.0518940000    -0.5829100000 
 C        2.3751630000     0.4822360000    -1.7845140000 
 C        2.7700640000     2.5423130000    -0.3131830000 
 N        3.9681170000     2.8998400000    -1.0884790000 
 C        4.5156620000     1.5456770000    -0.9053280000 
 H        1.9787620000    -0.6092690000     2.0002600000 
 H        1.2015640000    -0.6767040000     0.4064820000 
 H        1.2809800000     0.8650380000     1.2957340000 
 H        1.3018620000     0.3837650000    -1.6057440000 
 H        2.7792880000    -0.5012410000    -2.0373740000 
 H        2.5119590000     1.1485430000    -2.6383010000 
 H        2.8415180000     2.7606620000     0.7600690000 
 H        1.8330310000     2.9453200000    -0.7087720000 
 H        4.5265170000     3.6500880000    -0.7044710000 
 H        5.1595980000     1.4265080000    -0.0263300000 
 H        5.0099570000     1.1246610000    -1.7854170000 
*
