! RI PBE def2-SVP def2-SVP/J NBO PAL2
% maxcore 2000
% output
    # printlevel mini
    print[ P_Basis ] 0
    print[ P_SCFInfo ] 1
    print[ P_SCFIterInfo ] 1
    print[ P_OrbEn ] 0
    print[ P_Cartesian ] 0
end
*xyz 0 1
 C        1.1934000000    -0.0724420000     0.5061340000 
 O        2.5742120000    -0.0622370000     0.2527070000 
 C        3.1482290000    -1.2786360000     0.0998930000 
 C        4.4889020000    -1.4486150000    -0.1526110000 
 N        4.7081100000    -2.7966800000    -0.2456000000 
 C        3.5506900000    -3.4765830000    -0.0599620000 
 C        2.5468860000    -2.5615680000     0.1599500000 
 H        0.8857900000     0.9679940000     0.6033300000 
 H        0.9592640000    -0.6045410000     1.4359270000 
 H        0.6369790000    -0.5360170000    -0.3172500000 
 H        5.2764490000    -0.7237870000    -0.2686680000 
 H        5.6002590000    -3.2170000000    -0.4256440000 
 H        3.5171330000    -4.5532660000    -0.0959450000 
 H        1.5109890000    -2.7972120000     0.3407190000 
*
