! RI PBE def2-SVP def2-SVP/J NBO PAL2
% maxcore 2000
% output
    # printlevel mini
    print[ P_Basis ] 0
    print[ P_SCFInfo ] 1
    print[ P_SCFIterInfo ] 1
    print[ P_OrbEn ] 0
    print[ P_Cartesian ] 0
end
*xyz 0 1
 C        3.1155300000    -1.1285590000     0.4668390000 
 O        2.7328080000     0.1849670000     0.1392470000 
 C        3.2549690000     0.6721350000    -0.9955950000 
 N        2.9325500000     1.9002050000    -1.3550630000 
 N        3.5984640000     2.0868990000    -2.5012640000 
 C        4.3265000000     1.0250520000    -2.8760980000 
 C        4.1353750000     0.0592940000    -1.9145120000 
 H        2.6138830000    -1.3722790000     1.4017240000 
 H        4.1994450000    -1.2059630000     0.6088790000 
 H        2.8036330000    -1.8407320000    -0.3055440000 
 H        3.5077180000     2.9676750000    -2.9736380000 
 H        4.9178240000     1.0242980000    -3.7782660000 
 H        4.5664110000    -0.9265930000    -1.8887000000 
*
