! RI PBE def2-SVP def2-SVP/J NBO PAL2
% maxcore 2000
% output
    # printlevel mini
    print[ P_Basis ] 0
    print[ P_SCFInfo ] 1
    print[ P_SCFIterInfo ] 1
    print[ P_OrbEn ] 0
    print[ P_Cartesian ] 0
end
*xyz 0 1
 C        1.6425920000    -0.3854880000     0.8723960000 
 O        2.6355820000     0.0131000000    -0.0686730000 
 C        3.2079290000    -0.9374300000    -0.7813660000 
 C        4.1720990000    -0.8548950000    -1.7389520000 
 C        4.3428990000    -2.2051820000    -2.1055510000 
 N        3.5691890000    -3.0209370000    -1.4453830000 
 O        2.8357560000    -2.1991740000    -0.5892690000 
 H        1.3045080000     0.5334740000     1.3449640000 
 H        2.0650200000    -1.0589010000     1.6205240000 
 H        0.8079610000    -0.8785540000     0.3704980000 
 H        4.6656540000     0.0262410000    -2.1080440000 
 H        5.0164310000    -2.6199430000    -2.8426440000 
*
