! RI PBE def2-SVP def2-SVP/J NBO PAL2
% maxcore 2000
% output
    # printlevel mini
    print[ P_Basis ] 0
    print[ P_SCFInfo ] 1
    print[ P_SCFIterInfo ] 1
    print[ P_OrbEn ] 0
    print[ P_Cartesian ] 0
end
*xyz 0 1
 C        1.5722660000     0.8460200000    -0.5968810000 
 O        2.3813350000    -0.0845350000     0.0898590000 
 C        2.9289240000    -1.0582080000    -0.7291000000 
 C        3.7726810000    -1.9890440000     0.1218760000 
 C        2.8332110000    -3.1418530000     0.2346290000 
 N        1.8327620000    -3.0721770000    -0.5408010000 
 O        1.9195010000    -1.9038950000    -1.2876170000 
 H        1.2594760000     1.5924420000     0.1319500000 
 H        0.6898690000     0.3657390000    -1.0277810000 
 H        2.1377130000     1.3407560000    -1.3975250000 
 H        3.4444270000    -0.6012540000    -1.5826760000 
 H        4.0173990000    -1.5266420000     1.0788320000 
 H        4.7033980000    -2.2853250000    -0.3699390000 
 H        2.9374580000    -4.0015350000     0.8836650000 
*
