! RI PBE def2-SVP def2-SVP/J NBO PAL2
% maxcore 2000
% output
    # printlevel mini
    print[ P_Basis ] 0
    print[ P_SCFInfo ] 1
    print[ P_SCFIterInfo ] 1
    print[ P_OrbEn ] 0
    print[ P_Cartesian ] 0
end
*xyz 0 1
 C        2.6081480000     0.1194390000     1.3116620000 
 O        1.8522440000     0.3415950000     0.1466120000 
 C        2.6175430000     0.8098720000    -0.9058250000 
 C        1.9122150000     1.6941840000    -1.8943780000 
 N        0.5341420000     2.0607520000    -1.7709670000 
 C        2.9326120000     2.2887070000    -0.9750340000 
 N        4.1740220000     2.7994230000    -1.4659540000 
 H        1.9211820000    -0.2234760000     2.0858710000 
 H        3.1032340000     1.0384770000     1.6489820000 
 H        3.3738380000    -0.6506420000     1.1495390000 
 H        3.3782640000     0.1182850000    -1.2731270000 
 H        2.2303110000     1.5795440000    -2.9267400000 
 H        0.3036620000     2.1933510000    -0.7936300000 
 H       -0.0521350000     1.2986730000    -2.0933750000 
 H        2.4956110000     2.8551910000    -0.1521960000 
 H        4.1837810000     2.9014750000    -2.4696370000 
 H        4.9666370000     2.2409500000    -1.1830130000 
*
