! RI PBE def2-SVP def2-SVP/J NBO PAL2
% maxcore 2000
% output
    # printlevel mini
    print[ P_Basis ] 0
    print[ P_SCFInfo ] 1
    print[ P_SCFIterInfo ] 1
    print[ P_OrbEn ] 0
    print[ P_Cartesian ] 0
end
*xyz 0 1
 C        2.4518760000     0.9099990000    -0.2228760000 
 O        2.1026230000    -0.4502020000    -0.1222850000 
 C        2.5936950000    -1.0410450000     1.0273290000 
 C        2.8665760000    -2.5228700000     0.9564410000 
 N        2.6638380000    -3.3058680000    -0.2252830000 
 C        4.0023780000    -1.5517940000     1.0252190000 
 O        4.7457590000    -1.4049620000     2.1908310000 
 H        2.0444310000     1.2813250000    -1.1635040000 
 H        3.5403110000     1.0445450000    -0.2199700000 
 H        2.0273900000     1.4916500000     0.6052000000 
 H        2.2226350000    -0.6336190000     1.9679660000 
 H        2.6702210000    -3.0634490000     1.8769110000 
 H        2.8668030000    -2.7448740000    -1.0443150000 
 H        1.6848420000    -3.5590600000    -0.3021680000 
 H        4.5465840000    -1.3987150000     0.0918620000 
 H        5.2525380000    -2.2104730000     2.3279320000 
*
