! RI PBE def2-SVP def2-SVP/J NBO PAL2
% maxcore 2000
% output
    # printlevel mini
    print[ P_Basis ] 0
    print[ P_SCFInfo ] 1
    print[ P_SCFIterInfo ] 1
    print[ P_OrbEn ] 0
    print[ P_Cartesian ] 0
end
*xyz 0 1
 C        2.1237440000     0.3741430000    -2.7600370000 
 O        2.7224970000     0.3333860000    -1.4875070000 
 C        3.4805110000    -0.8172060000    -1.2440260000 
 C        4.7969450000    -0.8641450000    -1.9699930000 
 N        5.6344800000     0.2493880000    -1.5559960000 
 C        3.3998750000    -1.3161010000     0.1520220000 
 C        2.7363880000    -2.0854930000    -0.9615370000 
 H        1.4823030000     1.2556190000    -2.7805410000 
 H        1.5127070000    -0.5176860000    -2.9443000000 
 H        2.8629520000     0.4615740000    -3.5655300000 
 H        4.6061080000    -0.8981300000    -3.0552090000 
 H        5.2953520000    -1.8042860000    -1.7146810000 
 H        5.0997220000     1.1083120000    -1.6106070000 
 H        6.4333370000     0.3495070000    -2.1687190000 
 H        2.7531580000    -0.7676150000     0.8245720000 
 H        4.3034260000    -1.7110960000     0.5985580000 
 H        1.6551550000    -2.0426980000    -1.0099060000 
 H        3.1702510000    -3.0259740000    -1.2798740000 
*
