! RI PBE def2-SVP def2-SVP/J NBO PAL2
% maxcore 2000
% output
    # printlevel mini
    print[ P_Basis ] 0
    print[ P_SCFInfo ] 1
    print[ P_SCFIterInfo ] 1
    print[ P_OrbEn ] 0
    print[ P_Cartesian ] 0
end
*xyz 0 1
 C        2.2850070000     0.5570630000    -1.0189650000 
 O        1.9246470000    -0.2802610000     0.0457300000 
 C        3.0165870000    -0.9571530000     0.5949530000 
 C        2.5752740000    -1.9239990000     1.6952150000 
 N        2.6851400000    -3.0354980000     0.7482250000 
 C        3.2309660000    -4.2784620000     1.2064530000 
 C        3.4789020000    -2.2165720000    -0.1684350000 
 H        1.3781770000     1.0525590000    -1.3659150000 
 H        2.7206680000    -0.0048050000    -1.8557370000 
 H        3.0092700000     1.3203680000    -0.7002950000 
 H        3.8093950000    -0.2464610000     0.8588820000 
 H        1.5760680000    -1.7566460000     2.1057960000 
 H        3.3073860000    -1.9738740000     2.5161510000 
 H        2.5617360000    -4.7312940000     1.9425460000 
 H        4.2283270000    -4.1667540000     1.6729140000 
 H        3.3242930000    -4.9761150000     0.3701830000 
 H        3.1971550000    -2.2969000000    -1.2227810000 
 H        4.5645210000    -2.3771970000    -0.0707920000 
*
