! RI PBE def2-SVP def2-SVP/J NBO PAL2
% maxcore 2000
% output
    # printlevel mini
    print[ P_Basis ] 0
    print[ P_SCFInfo ] 1
    print[ P_SCFIterInfo ] 1
    print[ P_OrbEn ] 0
    print[ P_Cartesian ] 0
end
*xyz 0 1
 C        1.1600710000    -0.3309580000    -0.2493130000 
 O        2.1555400000     0.4638990000     0.3654820000 
 C        2.8327210000    -0.1216870000     1.3634430000 
 C        3.8350430000     0.4652170000     2.0928580000 
 N        4.2140470000    -0.5110340000     2.9848820000 
 C        3.4511670000    -1.5963040000     2.7581280000 
 N        2.6005920000    -1.3918740000     1.7778930000 
 H        0.7187840000     0.2933560000    -1.0247080000 
 H        0.3939830000    -0.6328500000     0.4695060000 
 H        1.5907440000    -1.2318550000    -0.6938610000 
 H        4.2865290000     1.4405970000     2.0557330000 
 H        4.9331770000    -0.4250780000     3.6805820000 
 H        3.5477130000    -2.5086270000     3.3266760000 
*
