! RI PBE def2-SVP def2-SVP/J NBO PAL2
% maxcore 2000
% output
    # printlevel mini
    print[ P_Basis ] 0
    print[ P_SCFInfo ] 1
    print[ P_SCFIterInfo ] 1
    print[ P_OrbEn ] 0
    print[ P_Cartesian ] 0
end
*xyz 0 1
 C        2.6983730000    -1.3836040000     0.4626120000 
 O        2.3481060000    -0.1105620000    -0.0260990000 
 C        2.8942060000     0.1777650000    -1.2734170000 
 C        2.7653050000     1.6094720000    -1.6845580000 
 N        2.3183110000     1.7441260000    -2.8668470000 
 N        2.0132370000     0.4372190000    -3.3931640000 
 C        2.2862320000    -0.4324670000    -2.5057900000 
 H        2.2675370000    -1.4700620000     1.4592940000 
 H        3.7885070000    -1.4953490000     0.5311990000 
 H        2.2990510000    -2.1888260000    -0.1651260000 
 H        3.9763260000    -0.0687230000    -1.2969960000 
 H        3.0598820000     2.4609910000    -1.0825420000 
 H        2.1376360000    -1.4892010000    -2.6959650000 
*
