! RI PBE def2-SVP def2-SVP/J NBO PAL2
% maxcore 2000
% output
    # printlevel mini
    print[ P_Basis ] 0
    print[ P_SCFInfo ] 1
    print[ P_SCFIterInfo ] 1
    print[ P_OrbEn ] 0
    print[ P_Cartesian ] 0
end
*xyz 0 1
 C        1.9544830000     0.5236640000     1.6776600000 
 O        2.2832590000    -0.0024250000     0.4187710000 
 C        3.0208960000    -1.2003740000     0.4856660000 
 C        3.5911250000    -1.5319530000    -0.8924600000 
 N        3.3905080000    -2.9789730000    -0.9899990000 
 N        2.4044740000    -3.3658270000    -0.1187940000 
 C        2.2029900000    -2.4422940000     0.7350830000 
 H        1.4400840000     1.4694670000     1.5076290000 
 H        2.8539280000     0.7108230000     2.2803640000 
 H        1.2884200000    -0.1392710000     2.2441750000 
 H        3.8122860000    -1.0906850000     1.2448120000 
 H        4.6443420000    -1.2732390000    -0.9977670000 
 H        3.0077420000    -0.9789060000    -1.6389070000 
 H        3.2146710000    -3.3505000000    -1.9115690000 
 H        1.5149130000    -2.5977050000     1.5557140000 
*
