! RI PBE def2-SVP def2-SVP/J NBO PAL2
% maxcore 2000
% output
    # printlevel mini
    print[ P_Basis ] 0
    print[ P_SCFInfo ] 1
    print[ P_SCFIterInfo ] 1
    print[ P_OrbEn ] 0
    print[ P_Cartesian ] 0
end
*xyz 0 1
 C        1.2354330000    -0.3438410000    -0.3763180000 
 O        2.3100660000     0.2118200000     0.3497260000 
 C        3.0008760000    -0.6514610000     1.1121170000 
 C        4.0688080000    -0.3504480000     1.8948190000 
 O        4.4980290000    -1.4608340000     2.5073920000 
 N        3.7220260000    -2.5177930000     2.1415180000 
 C        2.8300720000    -2.0459240000     1.3127630000 
 H        0.7850550000     0.4742190000    -0.9350980000 
 H        0.4857720000    -0.7783560000     0.2939700000 
 H        1.5837930000    -1.1103770000    -1.0771390000 
 H        4.6012030000     0.5631110000     2.1002410000 
 H        2.0985570000    -2.7175960000     0.8892970000 
*
