! RI PBE def2-SVP def2-SVP/J NBO PAL2
% maxcore 2000
% output
    # printlevel mini
    print[ P_Basis ] 0
    print[ P_SCFInfo ] 1
    print[ P_SCFIterInfo ] 1
    print[ P_OrbEn ] 0
    print[ P_Cartesian ] 0
end
*xyz 0 1
 C        2.2328630000    -0.7448120000     0.7723710000 
 O        2.5884150000     0.4240100000     0.0523560000 
 C        3.1227910000     0.2303670000    -1.1542320000 
 C        3.5389430000     1.1855900000    -2.0229790000 
 O        4.0139950000     0.5335090000    -3.1264920000 
 C        3.8549480000    -0.7612800000    -2.8540240000 
 N        3.3316680000    -1.0105800000    -1.7006500000 
 H        1.8203180000    -0.3944110000     1.7165910000 
 H        3.1057760000    -1.3752600000     0.9563790000 
 H        1.4851610000    -1.3290340000     0.2311480000 
 H        3.5686520000     2.2592940000    -2.0205170000 
 H        4.1706600000    -1.4684730000    -3.6049400000 
*
