! RI PBE def2-SVP def2-SVP/J NBO PAL2
% maxcore 2000
% output
    # printlevel mini
    print[ P_Basis ] 0
    print[ P_SCFInfo ] 1
    print[ P_SCFIterInfo ] 1
    print[ P_OrbEn ] 0
    print[ P_Cartesian ] 0
end
*xyz 0 1
 C        1.9077090000     1.4932010000     0.3913940000 
 O        2.2779370000     0.1617710000     0.1398050000 
 C        2.8650490000    -0.4809720000     1.2489280000 
 C        3.3965080000    -1.8424470000     0.8445080000 
 O        2.4743020000    -2.8039060000     1.3782500000 
 N        1.6455100000    -2.1816340000     2.2696180000 
 C        1.8527410000    -0.9281710000     2.2690970000 
 H        1.5513440000     1.9104700000    -0.5499850000 
 H        2.7641590000     2.0855290000     0.7421470000 
 H        1.1029010000     1.5679740000     1.1329460000 
 H        3.6431360000     0.1654330000     1.6762670000 
 H        4.3797110000    -2.0402680000     1.2789890000 
 H        3.4331970000    -1.9519370000    -0.2394170000 
 H        1.2648960000    -0.2984560000     2.9230420000 
*
