! RI PBE def2-SVP def2-SVP/J NBO PAL2
% maxcore 2000
% output
    # printlevel mini
    print[ P_Basis ] 0
    print[ P_SCFInfo ] 1
    print[ P_SCFIterInfo ] 1
    print[ P_OrbEn ] 0
    print[ P_Cartesian ] 0
end
*xyz 0 1
 C        1.3337830000     0.6562780000     0.5011070000 
 O        2.3224360000     0.0834980000    -0.3242480000 
 C        2.9264640000     0.8576510000    -1.2305380000 
 N        3.8250870000     0.4022620000    -2.0045310000 
 C        4.2455740000     1.5173290000    -2.8416890000 
 C        3.4092740000     2.7567540000    -2.4108180000 
 N        2.5976110000     2.1806250000    -1.3607520000 
 H        0.9837160000    -0.1429240000     1.1515070000 
 H        0.4854460000     1.0297420000    -0.0824100000 
 H        1.7413070000     1.4605460000     1.1229870000 
 H        4.0854350000     1.2774430000    -3.8972890000 
 H        5.3175570000     1.6986530000    -2.7175490000 
 H        2.7934910000     3.1497360000    -3.2259270000 
 H        4.0343460000     3.5727610000    -2.0346560000 
 H        1.9150740000     2.6790670000    -0.8257760000 
*
