! RI PBE def2-SVP def2-SVP/J NBO PAL2
% maxcore 2000
% output
    # printlevel mini
    print[ P_Basis ] 0
    print[ P_SCFInfo ] 1
    print[ P_SCFIterInfo ] 1
    print[ P_OrbEn ] 0
    print[ P_Cartesian ] 0
end
*xyz 0 1
 C        1.3912480000    -0.8208210000    -0.5552680000 
 O        2.2625920000    -0.0275730000     0.2141790000 
 C        2.9575420000    -0.6426440000     1.1755350000 
 N        3.7934490000    -0.0257730000     1.9549010000 
 C        4.2862070000    -1.0010800000     2.7862720000 
 C        3.7387570000    -2.2113260000     2.4996960000 
 N        2.8729310000    -1.9711390000     1.4482700000 
 H        0.9222600000    -0.1524490000    -1.2742380000 
 H        0.6094510000    -1.2772770000     0.0635480000 
 H        1.9337120000    -1.6015430000    -1.1018150000 
 H        5.0132370000    -0.7684660000     3.5485900000 
 H        3.8685140000    -3.1940710000     2.9202530000 
 H        2.2999010000    -2.6527470000     0.9857960000 
*
