! RI PBE def2-SVP def2-SVP/J NBO PAL2
% maxcore 2000
% output
    # printlevel mini
    print[ P_Basis ] 0
    print[ P_SCFInfo ] 1
    print[ P_SCFIterInfo ] 1
    print[ P_OrbEn ] 0
    print[ P_Cartesian ] 0
end
*xyz 0 1
 C        2.1929460000     1.7933950000    -0.6498070000 
 O        2.2954870000     0.4103960000    -0.3750730000 
 C        2.8587980000    -0.3550010000    -1.3153740000 
 N        2.5971440000    -1.5986450000    -1.3552520000 
 O        3.4056820000    -2.1941310000    -2.3175100000 
 C        3.9556490000    -1.1627790000    -3.1437920000 
 C        3.9175810000     0.0880000000    -2.2852720000 
 H        1.7207610000     2.2393520000     0.2234440000 
 H        1.5673910000     1.9797530000    -1.5285780000 
 H        3.1757810000     2.2514000000    -0.7956380000 
 H        3.3209190000    -1.0434940000    -4.0305420000 
 H        4.9528480000    -1.4750910000    -3.4532800000 
 H        3.6532920000     0.9826150000    -2.8492190000 
 H        4.8533220000     0.2855310000    -1.7496060000 
*
