! RI PBE def2-SVP def2-SVP/J NBO PAL2
% maxcore 2000
% output
    # printlevel mini
    print[ P_Basis ] 0
    print[ P_SCFInfo ] 1
    print[ P_SCFIterInfo ] 1
    print[ P_OrbEn ] 0
    print[ P_Cartesian ] 0
end
*xyz 0 1
 C        1.6181960000    -2.5431620000    -0.7258520000 
 O        2.9670340000    -2.6250550000    -0.3631460000 
 C        3.5856480000    -1.3621690000    -0.3161770000 
 C        5.0081320000    -1.5071350000     0.1109430000 
 C        6.0444700000    -1.9529480000    -0.8839550000 
 C        6.0527290000    -0.5462060000    -0.3982880000 
 N        7.1470700000    -0.0739040000     0.3962540000 
 H        1.2163430000    -3.5567210000    -0.7377560000 
 H        1.4928780000    -2.1002950000    -1.7246680000 
 H        1.0410270000    -1.9407790000    -0.0093760000 
 H        3.0388730000    -0.7072050000     0.3820130000 
 H        3.5405060000    -0.8842910000    -1.3091260000 
 H        5.1486320000    -1.8562660000     1.1294700000 
 H        5.7227100000    -2.1533590000    -1.8987180000 
 H        6.8300240000    -2.6107950000    -0.5295360000 
 H        5.6982040000     0.1987490000    -1.1055170000 
 H        7.6290020000    -0.8418120000     0.8450510000 
 H        6.8271050000     0.5531520000     1.1243660000 
*
