! RI PBE def2-SVP def2-SVP/J NBO PAL2
% maxcore 2000
% output
    # printlevel mini
    print[ P_Basis ] 0
    print[ P_SCFInfo ] 1
    print[ P_SCFIterInfo ] 1
    print[ P_OrbEn ] 0
    print[ P_Cartesian ] 0
end
*xyz 0 1
 C        3.2712440000     1.5991490000     1.8599150000 
 O        4.2460360000     0.8134170000     1.2340250000 
 C        3.8140420000    -0.5025130000     1.0040060000 
 C        4.9047840000    -1.3073230000     0.3395220000 
 C        5.5623470000    -0.6599000000    -0.8959650000 
 C        6.7891520000    -0.4199600000    -0.0025620000 
 N        6.2118580000    -1.3108830000     1.0221010000 
 H        3.6915220000     2.5947170000     2.0050990000 
 H        2.9873040000     1.1867150000     2.8384710000 
 H        2.3638270000     1.6822930000     1.2455020000 
 H        2.9168760000    -0.5079090000     0.3630480000 
 H        3.5348040000    -0.9781670000     1.9595290000 
 H        4.5057080000    -2.3167780000     0.1800100000 
 H        5.0690600000     0.2299770000    -1.2848300000 
 H        5.7389130000    -1.3648290000    -1.7080080000 
 H        6.8820590000     0.6235310000     0.3130770000 
 H        7.7515770000    -0.7644420000    -0.3909210000 
 H        6.1902870000    -0.9133060000     1.9528510000 
*
