! RI PBE def2-SVP def2-SVP/J NBO PAL2
% maxcore 2000
% output
    # printlevel mini
    print[ P_Basis ] 0
    print[ P_SCFInfo ] 1
    print[ P_SCFIterInfo ] 1
    print[ P_OrbEn ] 0
    print[ P_Cartesian ] 0
end
*xyz 0 1
 C        1.4358400000     1.8249340000    -0.2346230000 
 O        2.6134960000     1.0792340000    -0.1157190000 
 C        3.5077220000     1.3182950000    -1.1708010000 
 C        4.7257760000     0.4559200000    -1.0043190000 
 C        5.4195900000     0.5626520000     0.3255290000 
 C        5.5215880000     0.1488270000    -2.2090570000 
 N        4.6222570000    -0.8547820000    -1.6422930000 
 H        0.8050720000     1.5858960000     0.6220490000 
 H        0.8920010000     1.5757450000    -1.1565900000 
 H        1.6389340000     2.9057730000    -0.2355480000 
 H        3.8025070000     2.3814780000    -1.1807040000 
 H        3.0355770000     1.0878390000    -2.1364620000 
 H        4.7546560000     0.2421370000     1.1299210000 
 H        5.7171030000     1.5948490000     0.5302560000 
 H        6.3191190000    -0.0580290000     0.3445270000 
 H        6.5931100000     0.0275260000    -2.0812730000 
 H        5.2222640000     0.5344510000    -3.1789270000 
 H        5.1496900000    -1.5412440000    -1.1129670000 
*
