! RI PBE def2-SVP def2-SVP/J NBO PAL2
% maxcore 2000
% output
    # printlevel mini
    print[ P_Basis ] 0
    print[ P_SCFInfo ] 1
    print[ P_SCFIterInfo ] 1
    print[ P_OrbEn ] 0
    print[ P_Cartesian ] 0
end
*xyz 0 1
 C        1.5452130000    -0.2965600000     0.2868840000 
 O        2.9435820000    -0.2539970000     0.2489970000 
 C        3.4380210000     1.0598680000     0.2384720000 
 C        4.9339080000     1.0168970000     0.2465360000 
 C        5.7229720000     0.9957700000    -1.0046720000 
 N        5.6120470000     2.2064560000    -0.2169660000 
 C        6.7921810000     2.5998420000     0.5180550000 
 H        1.2467190000    -1.3451710000     0.2973730000 
 H        1.1016580000     0.1905090000    -0.5931180000 
 H        1.1499030000     0.1949420000     1.1873830000 
 H        3.0726320000     1.6108120000     1.1205240000 
 H        3.0949280000     1.6052100000    -0.6532660000 
 H        5.3722030000     0.4970270000     1.0975990000 
 H        5.2174850000     1.0038180000    -1.9650160000 
 H        6.6718980000     0.4648930000    -0.9849270000 
 H        7.4344300000     3.2057020000    -0.1253570000 
 H        7.3796150000     1.7426020000     0.8838690000 
 H        6.5001070000     3.2083900000     1.3770300000 
*
