! RI PBE def2-SVP def2-SVP/J NBO PAL2
% maxcore 2000
% output
    # printlevel mini
    print[ P_Basis ] 0
    print[ P_SCFInfo ] 1
    print[ P_SCFIterInfo ] 1
    print[ P_OrbEn ] 0
    print[ P_Cartesian ] 0
end
*xyz 0 1
 C        1.3993940000     3.1672110000     0.8571380000 
 O        2.7693250000     2.8840180000     0.7885810000 
 C        3.0437290000     1.5119830000     0.8882160000 
 C        4.5209740000     1.2737380000     0.7603540000 
 N        5.3127420000     2.0586050000    -0.1785560000 
 C        5.5124780000     2.2398210000     1.2633910000 
 C        6.8349410000     1.8077230000     1.8192780000 
 H        1.2804760000     4.2464760000     0.7601660000 
 H        0.9700600000     2.8463130000     1.8161430000 
 H        0.8456010000     2.6728130000     0.0471620000 
 H        2.5107950000     0.9652590000     0.0929590000 
 H        2.6861650000     1.1156450000     1.8520970000 
 H        4.7820690000     0.2173360000     0.7820520000 
 H        4.7356320000     2.8180430000    -0.5285090000 
 H        5.0953860000     3.1498470000     1.6868080000 
 H        7.1755820000     0.8950500000     1.3261890000 
 H        6.7663970000     1.6174900000     2.8939850000 
 H        7.5946330000     2.5776190000     1.6600770000 
*
