! RI PBE def2-SVP def2-SVP/J NBO PAL2
% maxcore 2000
% output
    # printlevel mini
    print[ P_Basis ] 0
    print[ P_SCFInfo ] 1
    print[ P_SCFIterInfo ] 1
    print[ P_OrbEn ] 0
    print[ P_Cartesian ] 0
end
*xyz 0 1
 C        1.7389200000     0.1302240000    -0.9495820000 
 O        3.1230730000     0.3357360000    -0.9585420000 
 C        3.4993740000     1.5173150000    -0.2956360000 
 C        4.9986170000     1.6124060000    -0.2747350000 
 N        5.7154240000     0.5519700000     0.3743300000 
 C        5.6750110000     2.2264570000    -1.4616760000 
 C        5.5997670000     2.9787000000    -0.1660390000 
 H        1.5395580000    -0.8055650000    -1.4726210000 
 H        1.2057300000     0.9433340000    -1.4623710000 
 H        1.3477890000     0.0556260000     0.0752140000 
 H        3.1105870000     1.5041110000     0.7371160000 
 H        3.0651770000     2.3945520000    -0.8003580000 
 H        5.4439440000    -0.3360290000    -0.0324840000 
 H        5.4784950000     0.5147890000     1.3597930000 
 H        5.0544170000     2.5580200000    -2.2849920000 
 H        6.6330870000     1.8085110000    -1.7402160000 
 H        4.9352390000     3.8324540000    -0.1033680000 
 H        6.5070920000     3.0577900000     0.4186570000 
*
