! RI PBE def2-SVP def2-SVP/J NBO PAL2
% maxcore 2000
% output
    # printlevel mini
    print[ P_Basis ] 0
    print[ P_SCFInfo ] 1
    print[ P_SCFIterInfo ] 1
    print[ P_OrbEn ] 0
    print[ P_Cartesian ] 0
end
*xyz 0 1
 C        3.8133190000     0.9519500000     0.6035260000 
 O        3.0603400000     0.1239510000    -0.2510910000 
 C        3.6005100000    -1.0614580000    -0.5799510000 
 C        4.7778430000    -1.5619760000    -0.2030560000 
 C        5.2665400000    -2.8864790000    -0.6409020000 
 C        4.9335820000    -3.4439990000    -1.9647440000 
 N        6.2940380000    -2.9878940000    -1.6869320000 
 H        3.2259520000     1.8555980000     0.7561230000 
 H        4.7766590000     1.2126620000     0.1515930000 
 H        3.9922660000     0.4638700000     1.5676250000 
 H        2.9303330000    -1.6141530000    -1.2296030000 
 H        5.4235570000    -1.0093640000     0.4722100000 
 H        5.4431440000    -3.5977560000     0.1632430000 
 H        4.3179200000    -2.8480450000    -2.6302180000 
 H        4.8251720000    -4.5162410000    -2.0860910000 
 H        6.4243240000    -2.0694750000    -2.1011120000 
*
