! RI PBE def2-SVP def2-SVP/J NBO PAL2
% maxcore 2000
% output
    # printlevel mini
    print[ P_Basis ] 0
    print[ P_SCFInfo ] 1
    print[ P_SCFIterInfo ] 1
    print[ P_OrbEn ] 0
    print[ P_Cartesian ] 0
end
*xyz 0 1
 C        1.6362540000    -0.2438550000    -0.9150770000 
 O        2.8472570000    -0.8492320000    -0.5523220000 
 C        3.0014730000    -1.0648650000     0.8351900000 
 C        2.1889870000    -2.2489650000     1.3303660000 
 C        4.4720610000    -1.2602820000     1.1151060000 
 C        5.3500690000    -1.9331900000     0.1425260000 
 N        5.4704200000    -0.4942570000     0.3892200000 
 H        1.6836370000    -0.0420580000    -1.9855340000 
 H        1.4873480000     0.7048080000    -0.3813710000 
 H        0.7723980000    -0.8912380000    -0.7219520000 
 H        2.6742430000    -0.1550470000     1.3664530000 
 H        2.4818510000    -3.1541060000     0.7941600000 
 H        1.1175110000    -2.0913160000     1.1922180000 
 H        2.3635600000    -2.4073870000     2.3972310000 
 H        4.6891770000    -1.3788620000     2.1738860000 
 H        4.9051860000    -2.2500820000    -0.7942420000 
 H        6.1842690000    -2.5319540000     0.4915510000 
 H        5.0004990000    -0.0058930000    -0.3683000000 
*
