! RI PBE def2-SVP def2-SVP/J NBO PAL2
% maxcore 2000
% output
    # printlevel mini
    print[ P_Basis ] 0
    print[ P_SCFInfo ] 1
    print[ P_SCFIterInfo ] 1
    print[ P_OrbEn ] 0
    print[ P_Cartesian ] 0
end
*xyz 0 1
 C        4.4521030000     0.7037130000     0.7913040000 
 O        3.3389770000    -0.0891520000     0.4614800000 
 C        3.4063250000    -0.7735490000    -0.6977880000 
 C        4.4014560000    -0.8049080000    -1.5819670000 
 C        4.3307680000    -1.6113190000    -2.8375150000 
 C        4.3951020000    -0.7594270000    -4.0981460000 
 N        4.3467460000    -1.6002720000    -5.2838420000 
 H        4.2254700000     1.1776300000     1.7450270000 
 H        4.6275360000     1.4746670000     0.0323500000 
 H        5.3567250000     0.0932490000     0.8921560000 
 H        2.4963530000    -1.3464710000    -0.8490680000 
 H        5.3040490000    -0.2254450000    -1.4140810000 
 H        3.4118180000    -2.2042550000    -2.8618390000 
 H        5.1621880000    -2.3294860000    -2.8646480000 
 H        5.2868780000    -0.1129550000    -4.0459360000 
 H        3.5281390000    -0.0920360000    -4.1163280000 
 H        5.1690910000    -2.1903480000    -5.3314810000 
 H        4.3409550000    -1.0365560000    -6.1242970000 
*
