! RI PBE def2-SVP def2-SVP/J NBO PAL2
% maxcore 2000
% output
    # printlevel mini
    print[ P_Basis ] 0
    print[ P_SCFInfo ] 1
    print[ P_SCFIterInfo ] 1
    print[ P_OrbEn ] 0
    print[ P_Cartesian ] 0
end
*xyz 0 1
 C        0.9936450000    -0.3618550000    -0.5606760000 
 O        2.3751250000    -0.2322270000    -0.2750960000 
 C        3.1209910000     0.2764760000    -1.2588140000 
 C        4.4444780000     0.4565170000    -1.1310250000 
 C        5.2306020000     0.1185220000     0.0983660000 
 C        5.1342410000     1.0058860000    -2.2451190000 
 N        5.7259820000     1.4500990000    -3.1307120000 
 H        0.5305100000    -0.7855110000     0.3280210000 
 H        0.8314360000    -1.0335780000    -1.4087580000 
 H        0.5454380000     0.6133020000    -0.7726990000 
 H        2.6052900000     0.5419150000    -2.1786980000 
 H        4.5759550000    -0.2925170000     0.8651420000 
 H        5.7253520000     1.0067200000     0.4989490000 
 H        6.0088740000    -0.6143600000    -0.1280930000 
*
