! RI PBE def2-SVP def2-SVP/J NBO PAL2
% maxcore 2000
% output
    # printlevel mini
    print[ P_Basis ] 0
    print[ P_SCFInfo ] 1
    print[ P_SCFIterInfo ] 1
    print[ P_OrbEn ] 0
    print[ P_Cartesian ] 0
end
*xyz 0 1
 C        3.6179890000    -1.0898570000    -0.2812400000 
 O        2.7733800000    -0.0225520000     0.0887070000 
 C        3.2987950000     0.9174300000     0.8846170000 
 C        4.5288600000     0.9703590000     1.3923760000 
 C        4.9533430000     2.0994490000     2.2843320000 
 C        6.0855050000     2.8466490000     1.7445350000 
 N        6.9845680000     3.4205440000     1.3156350000 
 H        3.0279880000    -1.7415260000    -0.9225240000 
 H        3.9534510000    -1.6476140000     0.5996340000 
 H        4.4916540000    -0.7254640000    -0.8315980000 
 H        2.5661380000     1.6915370000     1.0936710000 
 H        5.2674400000     0.2078430000     1.1792070000 
 H        5.2470650000     1.7338780000     3.2751110000 
 H        4.1267250000     2.7986140000     2.4404580000 
*
