! RI PBE def2-SVP def2-SVP/J NBO PAL2
% maxcore 2000
% output
    # printlevel mini
    print[ P_Basis ] 0
    print[ P_SCFInfo ] 1
    print[ P_SCFIterInfo ] 1
    print[ P_OrbEn ] 0
    print[ P_Cartesian ] 0
end
*xyz 0 1
 C        1.4341700000     0.9351460000    -0.1781190000 
 O        2.7526340000     0.7113770000     0.2560100000 
 C        2.9200340000     0.2109220000     1.5031320000 
 C        1.9340560000    -0.0825630000     2.3527580000 
 C        4.3704650000     0.0167990000     1.8038480000 
 C        5.0124010000    -1.0908800000     0.9769630000 
 N        6.4211390000    -1.2127810000     1.3227950000 
 H        1.5039090000     1.3339100000    -1.1890460000 
 H        0.9239240000     1.6595540000     0.4660140000 
 H        0.8578910000     0.0036560000    -0.1911050000 
 H        0.8875130000     0.0527350000     2.1194490000 
 H        2.1818350000    -0.4753420000     3.3286210000 
 H        4.4989200000    -0.2092250000     2.8632410000 
 H        4.8948730000     0.9591380000     1.6030680000 
 H        4.8284510000    -0.8949450000    -0.0886090000 
 H        4.5207390000    -2.0381900000     1.2180570000 
 H        6.9254250000    -0.3823010000     1.0345760000 
 H        6.8407180000    -1.9925990000     0.8325360000 
*
