! RI PBE def2-SVP def2-SVP/J NBO PAL2
% maxcore 2000
% output
    # printlevel mini
    print[ P_Basis ] 0
    print[ P_SCFInfo ] 1
    print[ P_SCFIterInfo ] 1
    print[ P_OrbEn ] 0
    print[ P_Cartesian ] 0
end
*xyz 0 1
 C        0.9788970000     1.0682670000     0.3067110000 
 O        2.2649310000     0.7332590000    -0.1485530000 
 C        2.9744960000    -0.1481900000     0.5846880000 
 C        2.5319840000    -0.7712090000     1.6782670000 
 C        4.3576170000    -0.3065660000     0.0009000000 
 C        5.0481660000    -1.6026810000     0.4012250000 
 N        5.1231240000     0.8980790000     0.3122200000 
 H        0.5829990000     1.7986990000    -0.3970840000 
 H        1.0171820000     1.5092640000     1.3088080000 
 H        0.3226950000     0.1907130000     0.3290120000 
 H        1.5438410000    -0.6127650000     2.0858770000 
 H        3.1709090000    -1.4734950000     2.1922320000 
 H        4.2170800000    -0.3103240000    -1.0863400000 
 H        5.2499380000    -1.6282240000     1.4754980000 
 H        4.4522570000    -2.4811250000     0.1424650000 
 H        6.0086640000    -1.6780700000    -0.1145220000 
 H        6.0184660000     0.8737720000    -0.1610150000 
 H        5.3109650000     0.9336970000     1.3081210000 
*
