! RI PBE def2-SVP def2-SVP/J NBO PAL2
% maxcore 2000
% output
    # printlevel mini
    print[ P_Basis ] 0
    print[ P_SCFInfo ] 1
    print[ P_SCFIterInfo ] 1
    print[ P_OrbEn ] 0
    print[ P_Cartesian ] 0
end
*xyz 0 1
 C        1.3378150000    -0.0915610000    -0.4242430000 
 O        2.6965180000     0.1523270000    -0.1368530000 
 C        2.9978580000     1.3117320000     0.4725930000 
 C        2.1526120000     2.2887210000     0.7935230000 
 C        4.4751630000     1.3830720000     0.7461390000 
 C        4.9232840000     0.3636710000     1.6866030000 
 N        5.2846760000    -0.4290530000     2.4356930000 
 H        1.2943740000    -1.0779650000    -0.8813170000 
 H        0.9443860000     0.6548520000    -1.1220290000 
 H        0.7383180000    -0.0828090000     0.4914100000 
 H        1.0942970000     2.2401570000     0.5816300000 
 H        2.5230800000     3.1723120000     1.2928430000 
 H        4.7317190000     2.3655160000     1.1445540000 
 H        5.0254890000     1.2460270000    -0.1905340000 
*
