! RI PBE def2-SVP def2-SVP/J NBO PAL2
% maxcore 2000
% output
    # printlevel mini
    print[ P_Basis ] 0
    print[ P_SCFInfo ] 1
    print[ P_SCFIterInfo ] 1
    print[ P_OrbEn ] 0
    print[ P_Cartesian ] 0
end
*xyz 0 1
 C        1.7093090000    -0.8994400000    -1.4314720000 
 O        1.6161140000    -0.7311460000    -0.0264520000 
 C        2.5892490000    -1.2970160000     0.7284840000 
 C        2.3631540000    -1.7247150000     1.9746010000 
 C        1.0425540000    -1.6972620000     2.6513170000 
 C        3.9096840000    -1.3616690000     0.1722650000 
 N        4.9626150000    -1.4158490000    -0.2928850000 
 H        0.8636800000    -0.3610570000    -1.8548740000 
 H        1.6438760000    -1.9568630000    -1.7051560000 
 H        2.6405950000    -0.4810160000    -1.8231910000 
 H        3.2224120000    -2.0940030000     2.5227030000 
 H        0.8003810000    -2.6821000000     3.0611990000 
 H        0.2496780000    -1.3920680000     1.9700560000 
 H        1.0565100000    -1.0006060000     3.4960030000 
*
