! RI PBE def2-SVP def2-SVP/J NBO PAL2
% maxcore 2000
% output
    # printlevel mini
    print[ P_Basis ] 0
    print[ P_SCFInfo ] 1
    print[ P_SCFIterInfo ] 1
    print[ P_OrbEn ] 0
    print[ P_Cartesian ] 0
end
*xyz 0 1
 C        2.8808800000     0.6648700000     0.1086010000 
 O        2.1756990000    -0.4576820000    -0.3570750000 
 C        2.8894870000    -1.5297940000    -0.7906190000 
 C        1.9407310000    -2.5941260000    -1.2270170000 
 C        4.2255360000    -1.5858840000    -0.7988110000 
 C        5.0634840000    -2.7298960000    -1.2620790000 
 N        5.9565140000    -2.2949680000    -2.3331190000 
 H        2.1301670000     1.3957530000     0.4061220000 
 H        3.5147050000     1.0932500000    -0.6755810000 
 H        3.5067900000     0.4137110000     0.9720850000 
 H        1.3607720000    -2.9542750000    -0.3728670000 
 H        2.4502430000    -3.4404060000    -1.6811280000 
 H        1.2306760000    -2.1793070000    -1.9467700000 
 H        4.7943650000    -0.7258250000    -0.4644840000 
 H        4.4338270000    -3.5880770000    -1.5315690000 
 H        5.6994400000    -3.0667340000    -0.4342980000 
 H        5.4140190000    -2.0075880000    -3.1388280000 
 H        6.5584750000    -3.0544010000    -2.6275720000 
*
