! RI PBE def2-SVP def2-SVP/J NBO PAL2
% maxcore 2000
% output
    # printlevel mini
    print[ P_Basis ] 0
    print[ P_SCFInfo ] 1
    print[ P_SCFIterInfo ] 1
    print[ P_OrbEn ] 0
    print[ P_Cartesian ] 0
end
*xyz 0 1
 C        2.9472600000    -0.2852380000     1.2998030000 
 O        2.2322510000    -0.0459320000     0.1048050000 
 C        2.9187160000     0.2025820000    -1.0136070000 
 C        2.0114810000     0.4307800000    -2.1669600000 
 C        4.2664400000     0.2391260000    -1.0745640000 
 C        4.9489410000     0.5065730000    -2.2820730000 
 N        5.5295650000     0.7228320000    -3.2560130000 
 H        2.1988120000    -0.4601950000     2.0696280000 
 H        3.5571960000     0.5815960000     1.5714920000 
 H        3.5872710000    -1.1674570000     1.2032380000 
 H        1.3791690000    -0.4477770000    -2.3167100000 
 H        2.5713350000     0.6313550000    -3.0779400000 
 H        1.3518640000     1.2756610000    -1.9542640000 
 H        4.8835200000     0.0657130000    -0.2035540000 
*
