! RI PBE def2-SVP def2-SVP/J NBO PAL2
% maxcore 2000
% output
    # printlevel mini
    print[ P_Basis ] 0
    print[ P_SCFInfo ] 1
    print[ P_SCFIterInfo ] 1
    print[ P_OrbEn ] 0
    print[ P_Cartesian ] 0
end
*xyz 0 1
 C        2.5759470000     0.4238810000     1.1295500000 
 O        2.2621510000    -0.0445620000    -0.1626970000 
 C        2.7701850000     0.7031100000    -1.2453450000 
 C        2.3591630000    -0.0575190000    -2.4979080000 
 C        2.2400880000     2.1352360000    -1.2716040000 
 C        4.2513270000     0.7425960000    -1.1743760000 
 N        5.3989910000     0.7791600000    -1.1146840000 
 H        2.2205370000    -0.3368680000     1.8235110000 
 H        2.0740850000     1.3698700000     1.3595830000 
 H        3.6571120000     0.5470290000     1.2629970000 
 H        1.2695580000    -0.0793320000    -2.5513880000 
 H        2.7307930000    -1.0810900000    -2.4529790000 
 H        2.7533380000     0.4270770000    -3.3915760000 
 H        1.1488210000     2.1039930000    -1.2806220000 
 H        2.5877900000     2.6485940000    -2.1690430000 
 H        2.5744860000     2.7084230000    -0.4067110000 
*
