! RI PBE def2-SVP def2-SVP/J NBO PAL2
% maxcore 2000
% output
    # printlevel mini
    print[ P_Basis ] 0
    print[ P_SCFInfo ] 1
    print[ P_SCFIterInfo ] 1
    print[ P_OrbEn ] 0
    print[ P_Cartesian ] 0
end
*xyz 0 1
 C        1.4428390000     1.0854140000    -0.3557810000 
 O        2.7865320000     0.9148400000    -0.7244860000 
 C        2.9939020000    -0.0235790000    -1.7545700000 
 C        2.5278250000     0.4708490000    -3.1104790000 
 C        4.4992270000    -0.2949470000    -1.7242340000 
 C        4.9019820000    -1.3381350000    -2.6496260000 
 N        5.2032200000    -2.1690900000    -3.3848160000 
 H        1.4330600000     1.7249830000     0.5266930000 
 H        0.9733760000     0.1250990000    -0.1027790000 
 H        0.8516060000     1.5683340000    -1.1424900000 
 H        2.4674730000    -0.9582960000    -1.5057390000 
 H        3.0170380000     1.4169690000    -3.3556270000 
 H        1.4480240000     0.6251250000    -3.1269320000 
 H        2.7689870000    -0.2590990000    -3.8859050000 
 H        4.7892680000    -0.5852490000    -0.7115410000 
 H        5.0368410000     0.6267820000    -1.9661080000 
*
