! RI PBE def2-SVP def2-SVP/J NBO PAL2
% maxcore 2000
% output
    # printlevel mini
    print[ P_Basis ] 0
    print[ P_SCFInfo ] 1
    print[ P_SCFIterInfo ] 1
    print[ P_OrbEn ] 0
    print[ P_Cartesian ] 0
end
*xyz 0 1
 C        2.3177790000     0.1007540000    -1.1326420000 
 O        2.1626260000    -0.0380330000     0.2646290000 
 C        2.7161230000     1.0247630000     0.9855650000 
 C        2.3333310000     0.9235480000     2.3889430000 
 C        2.0179670000     0.8691310000     3.5423590000 
 C        4.1914030000     1.0643590000     0.8557700000 
 N        5.3301910000     1.0984980000     0.7089590000 
 H        1.8162620000    -0.7530380000    -1.5843250000 
 H        3.3742550000     0.0942650000    -1.4233180000 
 H        1.8506100000     1.0265150000    -1.4918380000 
 H        2.3475480000     1.9878190000     0.5925680000 
 H        1.7385250000     0.8107090000     4.5683200000 
*
