! RI PBE def2-SVP def2-SVP/J NBO PAL2
% maxcore 2000
% output
    # printlevel mini
    print[ P_Basis ] 0
    print[ P_SCFInfo ] 1
    print[ P_SCFIterInfo ] 1
    print[ P_OrbEn ] 0
    print[ P_Cartesian ] 0
end
*xyz 0 1
 C        1.0374250000     0.7510450000     1.0198020000 
 O        2.4324280000     0.7300590000     0.9069750000 
 C        2.8964320000     1.5783600000    -0.1167140000 
 C        4.3734940000     1.4443530000    -0.2373770000 
 C        5.2232920000     2.4614330000    -0.1833260000 
 C        6.7030920000     2.3400290000    -0.3305470000 
 N        7.1774290000     3.2090580000    -1.3999060000 
 H        0.7613220000     0.0688870000     1.8242550000 
 H        0.5514130000     0.4210030000     0.0902250000 
 H        0.6654540000     1.7563780000     1.2638820000 
 H        2.6220580000     2.6236420000     0.0911920000 
 H        2.4137980000     1.2973820000    -1.0687790000 
 H        4.7464350000     0.4323340000    -0.3845360000 
 H        4.8482480000     3.4733080000    -0.0389340000 
 H        6.9683620000     1.2792350000    -0.4544220000 
 H        7.1775240000     2.6788630000     0.5982190000 
 H        6.8278130000     2.8854990000    -2.2935670000 
 H        8.1882040000     3.1979410000    -1.4490430000 
*
