! RI PBE def2-SVP def2-SVP/J NBO PAL2
% maxcore 2000
% output
    # printlevel mini
    print[ P_Basis ] 0
    print[ P_SCFInfo ] 1
    print[ P_SCFIterInfo ] 1
    print[ P_OrbEn ] 0
    print[ P_Cartesian ] 0
end
*xyz 0 1
 C        1.6068240000     1.1034630000     2.2350370000 
 O        2.9521500000     1.0873360000     1.8495120000 
 C        3.1045800000     1.0856190000     0.4486780000 
 C        4.5566030000     1.1270330000     0.0854840000 
 C        5.0979250000     0.1898740000    -0.6832240000 
 C        5.3206000000     2.3030090000     0.6188340000 
 N        6.7434200000     2.2314290000     0.3408830000 
 H        1.5755950000     1.1060710000     3.3248910000 
 H        1.0697540000     0.2178680000     1.8666080000 
 H        1.0897150000     1.9990200000     1.8614110000 
 H        2.5902860000     1.9670330000     0.0260460000 
 H        2.6348750000     0.1926920000     0.0125230000 
 H        4.5095730000    -0.6492170000    -1.0379780000 
 H        6.1336280000     0.2514220000    -0.9941460000 
 H        5.0762290000     2.3976660000     1.6869930000 
 H        4.9240230000     3.2087320000     0.1409640000 
 H        7.1610130000     1.4720280000     0.8661580000 
 H        7.1999070000     3.0829340000     0.6404360000 
*
