! RI PBE def2-SVP def2-SVP/J NBO PAL2
% maxcore 2000
% output
    # printlevel mini
    print[ P_Basis ] 0
    print[ P_SCFInfo ] 1
    print[ P_SCFIterInfo ] 1
    print[ P_OrbEn ] 0
    print[ P_Cartesian ] 0
end
*xyz 0 1
 C        1.3713210000     0.1648180000     0.3624470000 
 O        2.7744450000     0.1201640000     0.4002110000 
 C        3.2849720000    -1.0335640000    -0.1876820000 
 C        4.7850130000    -1.0249600000    -0.1181210000 
 C        5.5041560000    -0.0485240000     0.4291980000 
 C        5.4198200000    -2.1678670000    -0.6947590000 
 N        5.8957210000    -3.1037840000    -1.1688680000 
 H        1.0634800000     1.0941060000     0.8404630000 
 H        0.9287180000    -0.6805860000     0.9053960000 
 H        0.9976320000     0.1525090000    -0.6698340000 
 H        2.9756350000    -1.1124530000    -1.2427580000 
 H        2.9079910000    -1.9376510000     0.3178960000 
 H        5.0072060000     0.8096670000     0.8613110000 
 H        6.5850010000    -0.0954960000     0.4512090000 
*
