! RI PBE def2-SVP def2-SVP/J NBO PAL2
% maxcore 2000
% output
    # printlevel mini
    print[ P_Basis ] 0
    print[ P_SCFInfo ] 1
    print[ P_SCFIterInfo ] 1
    print[ P_OrbEn ] 0
    print[ P_Cartesian ] 0
end
*xyz 0 1
 C        1.1193180000     2.3085610000    -0.8083070000 
 O        2.5080260000     2.1408960000    -0.7989300000 
 C        2.8924480000     0.8187370000    -1.0804570000 
 C        4.4037120000     0.7015310000    -1.0794290000 
 C        4.8210510000    -0.7587710000    -1.1573850000 
 C        5.0185130000     1.5241010000    -2.2064310000 
 N        6.4698530000     1.5792500000    -2.0798110000 
 H        0.9096240000     3.3535500000    -0.5776120000 
 H        0.6301920000     1.6738320000    -0.0554500000 
 H        0.6891320000     2.0683740000    -1.7911430000 
 H        2.4922130000     0.5090980000    -2.0615660000 
 H        2.4648040000     0.1358970000    -0.3291850000 
 H        4.7551350000     1.1211910000    -0.1270960000 
 H        4.3904830000    -1.2380800000    -2.0429980000 
 H        4.4894860000    -1.3188870000    -0.2793800000 
 H        5.9060820000    -0.8357320000    -1.2314030000 
 H        4.5401210000     2.5119950000    -2.2225490000 
 H        4.7829240000     1.0368930000    -3.1603390000 
 H        6.7255690000     2.1504970000    -1.2826880000 
 H        6.8803110000     2.0187480000    -2.8936630000 
*
