! RI PBE def2-SVP def2-SVP/J NBO PAL2
% maxcore 2000
% output
    # printlevel mini
    print[ P_Basis ] 0
    print[ P_SCFInfo ] 1
    print[ P_SCFIterInfo ] 1
    print[ P_OrbEn ] 0
    print[ P_Cartesian ] 0
end
*xyz 0 1
 C        1.4216420000     0.6026640000     0.7606530000 
 O        2.7592710000     0.2598690000     0.5325930000 
 C        3.6342630000     1.3448500000     0.7141410000 
 C        5.0519880000     0.9225290000     0.3545810000 
 C        5.5072980000    -0.2191620000     1.2661160000 
 C        5.9703580000     2.1250910000     0.5228910000 
 N        5.0384530000     0.5523680000    -1.0590500000 
 H        0.8177150000    -0.2902490000     0.5959990000 
 H        1.0857350000     1.3922070000     0.0742280000 
 H        1.2651660000     0.9516300000     1.7911490000 
 H        3.5999620000     1.6892650000     1.7595350000 
 H        3.3364480000     2.1813340000     0.0650960000 
 H        6.5215160000    -0.5304140000     0.9998870000 
 H        4.8434200000    -1.0794190000     1.1651840000 
 H        5.5153040000     0.0829920000     2.3177690000 
 H        6.9934930000     1.8605190000     0.2416790000 
 H        5.6475470000     2.9467890000    -0.1194420000 
 H        5.9895530000     2.4690910000     1.5599760000 
 H        4.3616280000    -0.1889450000    -1.2014380000 
 H        5.9443580000     0.1883830000    -1.3315270000 
*
