! RI PBE def2-SVP def2-SVP/J NBO PAL2
% maxcore 2000
% output
    # printlevel mini
    print[ P_Basis ] 0
    print[ P_SCFInfo ] 1
    print[ P_SCFIterInfo ] 1
    print[ P_OrbEn ] 0
    print[ P_Cartesian ] 0
end
*xyz 0 1
 C        0.9102760000    -0.4273880000    -0.2629190000 
 O        2.3109040000    -0.4680700000    -0.2815520000 
 C        2.8416520000    -0.5951140000     1.0149300000 
 C        4.2916360000    -0.6379740000     0.9748580000 
 C        5.4926210000    -0.6772120000     0.9795730000 
 C        6.9462270000    -0.7140670000     0.9407170000 
 N        7.5259830000     0.5847210000     1.2636910000 
 H        0.5739300000    -0.3275840000    -1.2946400000 
 H        0.5372830000     0.4282880000     0.3178120000 
 H        0.4838000000    -1.3465530000     0.1634680000 
 H        2.4613920000    -1.5115490000     1.4944130000 
 H        2.5190480000     0.2499730000     1.6441330000 
 H        7.2424410000    -1.1069940000    -0.0449270000 
 H        7.2994250000    -1.4406080000     1.6806370000 
 H        7.1763870000     1.2858300000     0.6221080000 
 H        8.5319230000     0.5481810000     1.1525480000 
*
