! RI PBE def2-SVP def2-SVP/J NBO PAL2
% maxcore 2000
% output
    # printlevel mini
    print[ P_Basis ] 0
    print[ P_SCFInfo ] 1
    print[ P_SCFIterInfo ] 1
    print[ P_OrbEn ] 0
    print[ P_Cartesian ] 0
end
*xyz 0 1
 C        1.7763430000    -0.7856940000    -0.0204760000 
 O        2.7093710000    -1.7434770000    -0.4314290000 
 C        3.7953920000    -1.1747520000    -1.1209230000 
 C        4.7681490000    -2.2601980000    -1.5174560000 
 C        4.2160210000    -3.3119560000    -2.4731010000 
 C        3.8675830000    -2.7373290000    -3.8339470000 
 N        5.2434640000    -4.3353210000    -2.6517210000 
 H        0.9733950000    -1.3069420000     0.5017110000 
 H        1.3494920000    -0.2424500000    -0.8758250000 
 H        2.2258340000    -0.0506400000     0.6626620000 
 H        4.3034100000    -0.4395880000    -0.4772650000 
 H        3.4323290000    -0.6262550000    -2.0043000000 
 H        5.1112020000    -2.7585270000    -0.6033930000 
 H        5.6498660000    -1.7987890000    -1.9750090000 
 H        3.2955130000    -3.7157010000    -2.0258610000 
 H        4.7504040000    -2.2851430000    -4.2939860000 
 H        3.0803450000    -1.9843320000    -3.7633910000 
 H        3.5055210000    -3.5235140000    -4.5026740000 
 H        5.4626660000    -4.7715350000    -1.7635360000 
 H        4.9044910000    -5.0693760000    -3.2623910000 
*
