! RI PBE def2-SVP def2-SVP/J NBO PAL2
% maxcore 2000
% output
    # printlevel mini
    print[ P_Basis ] 0
    print[ P_SCFInfo ] 1
    print[ P_SCFIterInfo ] 1
    print[ P_OrbEn ] 0
    print[ P_Cartesian ] 0
end
*xyz 0 1
 C        1.6804460000     0.1199850000     0.5116300000 
 O        2.9737520000    -0.1010070000     0.0174430000 
 C        3.0619280000    -1.2629720000    -0.7657230000 
 C        4.4701250000    -1.3791510000    -1.3012050000 
 C        4.8706690000    -0.1982930000    -2.1884070000 
 C        4.0649660000    -0.1103780000    -3.3967100000 
 N        3.4164440000    -0.0617870000    -4.3451020000 
 H        1.7047720000     1.0385340000     1.0979820000 
 H        1.3505630000    -0.7055350000     1.1574140000 
 H        0.9533830000     0.2355570000    -0.3032760000 
 H        2.3392230000    -1.2200140000    -1.5953750000 
 H        2.8183700000    -2.1509240000    -0.1631000000 
 H        4.5627120000    -2.3139920000    -1.8597920000 
 H        5.1692960000    -1.4258040000    -0.4622310000 
 H        5.9199330000    -0.2794580000    -2.4841000000 
 H        4.7573070000     0.7354590000    -1.6319360000 
*
