! RI PBE def2-SVP def2-SVP/J NBO PAL2
% maxcore 2000
% output
    # printlevel mini
    print[ P_Basis ] 0
    print[ P_SCFInfo ] 1
    print[ P_SCFIterInfo ] 1
    print[ P_OrbEn ] 0
    print[ P_Cartesian ] 0
end
*xyz 0 1
 C        4.5574110000    -0.4257590000    -0.5170710000 
 O        3.3158920000     0.0075290000    -0.0050650000 
 C        3.3425740000     0.9330270000     0.9592120000 
 C        4.4155540000     1.5014130000     1.5213260000 
 C        4.3235440000     2.4910580000     2.6022010000 
 N        3.1079960000     3.1288930000     2.7503680000 
 N        5.2649590000     2.7581970000     3.4243170000 
 H        4.3325080000    -1.1570350000    -1.2907110000 
 H        5.1618170000    -0.8941970000     0.2662940000 
 H        5.1148650000     0.4105450000    -0.9511680000 
 H        2.3361240000     1.1788370000     1.2806630000 
 H        5.4186410000     1.2141720000     1.2315870000 
 H        2.6376830000     3.3899140000     1.8992240000 
 H        3.1420010000     3.8645400000     3.4397600000 
 H        6.0628400000     2.1517670000     3.2588620000 
*
