! RI PBE def2-SVP def2-SVP/J NBO PAL2
% maxcore 2000
% output
    # printlevel mini
    print[ P_Basis ] 0
    print[ P_SCFInfo ] 1
    print[ P_SCFIterInfo ] 1
    print[ P_OrbEn ] 0
    print[ P_Cartesian ] 0
end
*xyz 0 1
 C        1.0965910000     0.1725410000    -0.6879300000 
 O        1.2008480000    -1.1820620000    -1.0785040000 
 C        2.4488270000    -1.6811110000    -1.1869690000 
 C        2.4908610000    -3.0819810000    -1.5958310000 
 C        1.4454000000    -3.7588010000    -2.0614740000 
 N        3.4489640000    -0.9375650000    -0.9251550000 
 N        4.7177610000    -1.4768730000    -1.0420790000 
 H        1.5353600000     0.3314410000     0.2999120000 
 H        0.0305090000     0.3935450000    -0.6676520000 
 H        1.6080550000     0.8262360000    -1.3990660000 
 H        3.4467770000    -3.5775280000    -1.4647070000 
 H        0.4798380000    -3.2844680000    -2.1874620000 
 H        1.5310280000    -4.8067620000    -2.3228300000 
 H        5.3752010000    -0.7118720000    -1.0070550000 
 H        4.8563830000    -1.9800210000    -1.9126070000 
*
