! RI PBE def2-SVP def2-SVP/J NBO PAL2
% maxcore 2000
% output
    # printlevel mini
    print[ P_Basis ] 0
    print[ P_SCFInfo ] 1
    print[ P_SCFIterInfo ] 1
    print[ P_OrbEn ] 0
    print[ P_Cartesian ] 0
end
*xyz 0 1
 C        3.1692960000    -0.6223680000    -0.9403620000 
 O        2.9162090000    -0.4221850000     0.4293970000 
 C        3.1998730000     0.8777930000     0.8703450000 
 C        2.5166600000     1.0719120000     2.2103070000 
 C        4.7042630000     1.1094410000     0.9974120000 
 N        5.0713340000     2.4290780000     0.9875550000 
 N        5.5638060000     0.1935650000     1.1823860000 
 H        2.9096370000    -1.6562030000    -1.1673260000 
 H        4.2235090000    -0.4559320000    -1.1898230000 
 H        2.5484630000     0.0425050000    -1.5559410000 
 H        2.7959890000     1.6051810000     0.1450120000 
 H        2.8816340000     0.3258110000     2.9184420000 
 H        1.4375860000     0.9534850000     2.1016390000 
 H        2.7306410000     2.0633590000     2.6115940000 
 H        4.5076740000     3.0759860000     0.4641940000 
 H        6.0642470000     2.5979730000     0.9673070000 
 H        5.0894680000    -0.7058900000     1.2265520000 
*
