! RI PBE def2-SVP def2-SVP/J NBO PAL2
% maxcore 2000
% output
    # printlevel mini
    print[ P_Basis ] 0
    print[ P_SCFInfo ] 1
    print[ P_SCFIterInfo ] 1
    print[ P_OrbEn ] 0
    print[ P_Cartesian ] 0
end
*xyz 0 1
 C        3.0700900000     2.6541100000    -0.2164430000 
 O        2.8010110000     1.2774230000    -0.1427950000 
 C        3.2376380000     0.5715200000    -1.2832610000 
 C        4.7318500000     0.4775700000    -1.3846760000 
 C        5.4956550000    -0.0988320000    -0.2344860000 
 N        5.2690670000     0.9006940000    -2.4616520000 
 N        6.6242770000     0.8466170000    -2.5699250000 
 H        2.6756050000     3.1085020000     0.6927760000 
 H        2.5791280000     3.1094200000    -1.0871080000 
 H        4.1451040000     2.8624650000    -0.2835460000 
 H        2.8554990000     1.0263730000    -2.2059420000 
 H        2.8055490000    -0.4300090000    -1.1830720000 
 H        4.8378960000    -0.2749110000     0.6157340000 
 H        6.2951160000     0.5791650000     0.0820390000 
 H        5.9670710000    -1.0530430000    -0.5029300000 
 H        6.8979500000     0.8942110000    -3.5382660000 
 H        7.0803840000     0.0826350000    -2.0824280000 
*
