! RI PBE def2-SVP def2-SVP/J NBO PAL2
% maxcore 2000
% output
    # printlevel mini
    print[ P_Basis ] 0
    print[ P_SCFInfo ] 1
    print[ P_SCFIterInfo ] 1
    print[ P_OrbEn ] 0
    print[ P_Cartesian ] 0
end
*xyz 0 1
 C        2.4986780000     2.4634730000    -2.5870330000 
 O        3.6624680000     2.0918570000    -1.9040430000 
 C        3.4614200000     1.9858310000    -0.5168910000 
 C        4.7751890000     1.6198380000     0.1465510000 
 C        5.8202540000     2.6712880000    -0.0066440000 
 N        6.3185990000     3.2425380000     1.0100730000 
 N        7.2112160000     4.2523430000     0.8143690000 
 H        2.7407770000     2.5173790000    -3.6488490000 
 H        2.1313890000     3.4448120000    -2.2554060000 
 H        1.6941830000     1.7281330000    -2.4433110000 
 H        2.7048500000     1.2147570000    -0.3029380000 
 H        3.0860070000     2.9390770000    -0.1138310000 
 H        5.1250300000     0.6785530000    -0.2935780000 
 H        4.6064620000     1.4512600000     1.2124540000 
 H        6.1262870000     2.9435790000    -1.0243030000 
 H        7.8337030000     4.3281210000     1.6030700000 
 H        7.7159770000     4.2142410000    -0.0670700000 
*
