! RI PBE def2-SVP def2-SVP/J NBO PAL2
% maxcore 2000
% output
    # printlevel mini
    print[ P_Basis ] 0
    print[ P_SCFInfo ] 1
    print[ P_SCFIterInfo ] 1
    print[ P_OrbEn ] 0
    print[ P_Cartesian ] 0
end
*xyz 0 1
 C        1.3395600000     1.6590100000    -0.4185880000 
 O        2.6643060000     2.1204480000    -0.4424940000 
 C        3.4553910000     1.4406300000    -1.3898780000 
 C        4.8622810000     2.0104680000    -1.3886250000 
 C        4.9790010000     3.3906400000    -1.9941870000 
 N        4.2877320000     4.3584480000    -1.3238340000 
 N        5.6773790000     3.6940540000    -3.0179540000 
 H        0.8051210000     2.2279870000     0.3421110000 
 H        1.2944830000     0.5921960000    -0.1618570000 
 H        0.8458070000     1.8046290000    -1.3886600000 
 H        3.0061110000     1.5302830000    -2.3904970000 
 H        3.4919000000     0.3704130000    -1.1382140000 
 H        5.5085060000     1.3318930000    -1.9484200000 
 H        5.2233910000     2.0334930000    -0.3551450000 
 H        3.5067660000     4.0634860000    -0.7609080000 
 H        4.2166690000     5.2456450000    -1.7938030000 
 H        6.1723960000     2.8794790000    -3.3656380000 
*
