! RI PBE def2-SVP def2-SVP/J NBO PAL2
% maxcore 2000
% output
    # printlevel mini
    print[ P_Basis ] 0
    print[ P_SCFInfo ] 1
    print[ P_SCFIterInfo ] 1
    print[ P_OrbEn ] 0
    print[ P_Cartesian ] 0
end
*xyz 0 1
 C        3.6401560000     0.8861500000     0.7061230000 
 O        2.7207650000     0.3284690000    -0.2081970000 
 C        3.2058300000    -0.5317870000    -1.1092380000 
 C        4.4734310000    -0.9405180000    -1.2597660000 
 C        4.8245540000    -1.8801740000    -2.2917740000 
 N        6.0306270000    -2.2661120000    -2.4314800000 
 O        6.1506560000    -3.1663720000    -3.4782030000 
 H        3.0682460000     1.5512120000     1.3499940000 
 H        4.4148970000     1.4556770000     0.1828780000 
 H        4.1132600000     0.1051530000     1.3099300000 
 H        2.4141000000    -0.8954400000    -1.7568990000 
 H        5.2748350000    -0.5878090000    -0.6226280000 
 H        4.0468960000    -2.2619520000    -2.9574230000 
 H        7.0886380000    -3.3743970000    -3.4764580000 
*
