! RI PBE def2-SVP def2-SVP/J NBO PAL2
% maxcore 2000
% output
    # printlevel mini
    print[ P_Basis ] 0
    print[ P_SCFInfo ] 1
    print[ P_SCFIterInfo ] 1
    print[ P_OrbEn ] 0
    print[ P_Cartesian ] 0
end
*xyz 0 1
 C        1.1870430000    -0.0048290000    -0.0596760000 
 O        2.5986990000    -0.0800010000     0.0257520000 
 C        3.2433720000    -0.1144200000    -1.1417020000 
 C        4.5719080000    -0.1862340000    -1.2351610000 
 C        5.1829400000    -0.2185230000    -2.5743530000 
 N        6.5420870000    -0.2923790000    -2.5764720000 
 O        4.5456060000    -0.1837740000    -3.6129080000 
 H        0.8128580000     0.0161930000     0.9620930000 
 H        0.7792560000    -0.8783700000    -0.5767650000 
 H        0.8743760000     0.9060330000    -0.5786340000 
 H        2.6423510000    -0.0814580000    -2.0492050000 
 H        5.1855830000    -0.2199140000    -0.3420960000 
 H        7.0789550000    -0.3220740000    -1.7305070000 
 H        7.0136660000    -0.3177610000    -3.4628560000 
*
