! RI PBE def2-SVP def2-SVP/J NBO PAL2
% maxcore 2000
% output
    # printlevel mini
    print[ P_Basis ] 0
    print[ P_SCFInfo ] 1
    print[ P_SCFIterInfo ] 1
    print[ P_OrbEn ] 0
    print[ P_Cartesian ] 0
end
*xyz 0 1
 C        2.2112290000    -0.9429380000     1.1650930000 
 O        3.4588490000    -1.1539890000     0.5475900000 
 C        3.4398950000    -1.6373930000    -0.7175870000 
 C        2.3665900000    -1.9357620000    -1.4432160000 
 C        4.8193230000    -1.8286620000    -1.2903420000 
 N        5.8239040000    -1.4894400000    -0.4542900000 
 O        4.9939590000    -2.2536300000    -2.4128440000 
 H        2.4173330000    -0.5580080000     2.1622650000 
 H        1.6494390000    -1.8797710000     1.2420140000 
 H        1.6163400000    -0.2133850000     0.6055940000 
 H        1.3541800000    -1.8190650000    -1.0848010000 
 H        2.5323000000    -2.3137280000    -2.4418390000 
 H        5.6321880000    -1.1414950000     0.4670350000 
 H        6.7686830000    -1.5941250000    -0.7778710000 
*
