! RI PBE def2-SVP def2-SVP/J NBO PAL2
% maxcore 2000
% output
    # printlevel mini
    print[ P_Basis ] 0
    print[ P_SCFInfo ] 1
    print[ P_SCFIterInfo ] 1
    print[ P_OrbEn ] 0
    print[ P_Cartesian ] 0
end
*xyz 0 1
 C        1.1991060000     0.3664490000    -1.8761140000 
 O        1.2263690000    -1.0394330000    -1.7104100000 
 C        2.4098020000    -1.5891820000    -1.3978630000 
 C        2.3919490000    -3.0383970000    -1.2366740000 
 C        1.2978760000    -3.7783010000    -1.3836300000 
 N        3.4268890000    -0.8255350000    -1.2697590000 
 O        4.5820520000    -1.5273050000    -0.9456870000 
 H        0.1682140000     0.6148310000    -2.1222080000 
 H        1.8682400000     0.6773270000    -2.6818880000 
 H        1.5038800000     0.8734990000    -0.9575990000 
 H        3.3446210000    -3.4851550000    -0.9845170000 
 H        0.3434620000    -3.3326820000    -1.6360230000 
 H        1.3338650000    -4.8532260000    -1.2536740000 
 H        5.2359660000    -0.8269900000    -0.8871440000 
*
