! RI PBE def2-SVP def2-SVP/J NBO PAL2
% maxcore 2000
% output
    # printlevel mini
    print[ P_Basis ] 0
    print[ P_SCFInfo ] 1
    print[ P_SCFIterInfo ] 1
    print[ P_OrbEn ] 0
    print[ P_Cartesian ] 0
end
*xyz 0 1
 C        3.4606850000     0.6321410000    -1.0216510000 
 O        3.2493450000    -0.7223230000    -0.7011160000 
 C        3.2795090000    -0.9793860000     0.6861690000 
 C        2.5000430000    -2.2504110000     0.9567570000 
 C        4.7012250000    -1.1270120000     1.2328860000 
 N        5.6348650000    -1.4061590000     0.2992720000 
 O        4.9320940000    -1.0298920000     2.4197930000 
 H        3.4216430000     0.7179980000    -2.1077720000 
 H        4.4365650000     0.9903480000    -0.6701400000 
 H        2.6785630000     1.2666390000    -0.5866950000 
 H        2.8281780000    -0.1447630000     1.2380740000 
 H        2.9227010000    -3.0826540000     0.3894870000 
 H        1.4590360000    -2.1209750000     0.6576250000 
 H        2.5415850000    -2.4918850000     2.0192520000 
 H        5.3656090000    -1.5048110000    -0.6637780000 
 H        6.5816540000    -1.5761430000     0.5890350000 
*
