! RI PBE def2-SVP def2-SVP/J NBO PAL2
% maxcore 2000
% output
    # printlevel mini
    print[ P_Basis ] 0
    print[ P_SCFInfo ] 1
    print[ P_SCFIterInfo ] 1
    print[ P_OrbEn ] 0
    print[ P_Cartesian ] 0
end
*xyz 0 1
 C        4.3851960000    -0.0423340000     1.2919600000 
 O        3.5997470000    -0.7653010000     0.3779800000 
 C        3.7091210000    -0.2875300000    -0.9407380000 
 C        5.0422540000    -0.5887240000    -1.5647980000 
 C        5.5266960000    -1.9979250000    -1.6186610000 
 N        5.6723400000     0.4132920000    -2.0310230000 
 O        6.8668600000     0.0449190000    -2.6300240000 
 H        4.1997710000    -0.4656210000     2.2791910000 
 H        4.1094160000     1.0206400000     1.2994640000 
 H        5.4561280000    -0.1175540000     1.0663840000 
 H        3.5295840000     0.7937320000    -0.9933810000 
 H        2.9227650000    -0.7992350000    -1.5051800000 
 H        4.9031120000    -2.6393020000    -0.9970000000 
 H        6.5636870000    -2.0625000000    -1.2838530000 
 H        5.5062290000    -2.3651690000    -2.6490190000 
 H        7.2290950000     0.8879020000    -2.9157220000 
*
