! RI PBE def2-SVP def2-SVP/J NBO PAL2
% maxcore 2000
% output
    # printlevel mini
    print[ P_Basis ] 0
    print[ P_SCFInfo ] 1
    print[ P_SCFIterInfo ] 1
    print[ P_OrbEn ] 0
    print[ P_Cartesian ] 0
end
*xyz 0 1
 C        2.0791710000     0.0663840000     0.9775790000 
 O        3.3559400000    -0.1748260000     0.4462210000 
 C        3.3075360000    -0.6264680000    -0.8905600000 
 C        4.7089170000    -0.8787940000    -1.4040320000 
 C        5.5829060000     0.3420510000    -1.6375620000 
 N        5.4422770000     1.3371890000    -0.7328300000 
 O        6.3605310000     0.3980890000    -2.5682380000 
 H        2.2073820000     0.3971430000     2.0082450000 
 H        1.4681530000    -0.8456100000     0.9697970000 
 H        1.5488680000     0.8452490000     0.4134460000 
 H        2.7929790000     0.1171680000    -1.5175250000 
 H        2.7262130000    -1.5581220000    -0.9407000000 
 H        4.6580740000    -1.4038690000    -2.3584910000 
 H        5.2319170000    -1.5370980000    -0.7018560000 
 H        4.8246240000     1.2253560000     0.0549210000 
 H        6.0346900000     2.1445580000    -0.8174220000 
*
