! RI PBE def2-SVP def2-SVP/J NBO PAL2
% maxcore 2000
% output
    # printlevel mini
    print[ P_Basis ] 0
    print[ P_SCFInfo ] 1
    print[ P_SCFIterInfo ] 1
    print[ P_OrbEn ] 0
    print[ P_Cartesian ] 0
end
*xyz 0 1
 C        1.1997350000    -0.1249120000    -0.5746530000 
 O        2.5621220000     0.1279060000    -0.3780130000 
 C        3.0657330000     1.0811650000    -1.2753090000 
 C        4.5319500000     1.2948020000    -0.9729980000 
 N        5.0875890000     2.2777750000    -1.8772870000 
 C        6.5261770000     2.2619930000    -2.0204900000 
 C        5.6558890000     1.7593730000    -3.1057120000 
 H        0.8918370000    -0.8688840000     0.1606280000 
 H        1.0032930000    -0.5183200000    -1.5822270000 
 H        0.5963690000     0.7832990000    -0.4361520000 
 H        2.5257490000     2.0346150000    -1.1794300000 
 H        2.9400700000     0.7366170000    -2.3142870000 
 H        5.0576250000     0.3267900000    -1.0299110000 
 H        4.6357030000     1.6639610000     0.0514510000 
 H        7.0819410000     1.5215400000    -1.4497830000 
 H        7.0049400000     3.2315770000    -2.1043300000 
 H        5.6294370000     0.6824870000    -3.2585930000 
 H        5.4880400000     2.3549160000    -3.9962940000 
*
