! RI PBE def2-SVP def2-SVP/J NBO PAL2
% maxcore 2000
% output
    # printlevel mini
    print[ P_Basis ] 0
    print[ P_SCFInfo ] 1
    print[ P_SCFIterInfo ] 1
    print[ P_OrbEn ] 0
    print[ P_Cartesian ] 0
end
*xyz 0 1
 C        2.7786190000     0.2406690000    -0.3206600000 
 O        2.5055320000    -1.0887050000     0.0362990000 
 C        3.5585890000    -1.9192480000     0.2808140000 
 C        3.0248000000    -3.2803690000     0.5954920000 
 N        2.2996180000    -3.8224580000    -0.5479970000 
 C        4.8388410000    -1.5439110000     0.2497460000 
 C        6.0301740000    -2.4122430000     0.4829870000 
 H        1.8152670000     0.7166950000    -0.4994380000 
 H        3.3855710000     0.2926990000    -1.2315010000 
 H        3.2996750000     0.7718520000     0.4841180000 
 H        2.4047110000    -3.1834510000     1.5019020000 
 H        3.8473960000    -3.9515450000     0.8394770000 
 H        1.5641130000    -3.1770420000    -0.8094730000 
 H        1.8519250000    -4.6940410000    -0.2932420000 
 H        5.0627590000    -0.5056410000     0.0287550000 
 H        5.7706590000    -3.4592370000     0.6363470000 
 H        6.5986240000    -2.0793500000     1.3579770000 
 H        6.7142260000    -2.3679730000    -0.3704140000 
*
