! RI PBE def2-SVP def2-SVP/J NBO PAL2
% maxcore 2000
% output
    # printlevel mini
    print[ P_Basis ] 0
    print[ P_SCFInfo ] 1
    print[ P_SCFIterInfo ] 1
    print[ P_OrbEn ] 0
    print[ P_Cartesian ] 0
end
*xyz 0 1
 C        5.1435820000     1.9414170000     2.0259400000 
 O        4.0362490000     2.6961860000     1.6097290000 
 C        3.6467610000     2.4402970000     0.2766030000 
 C        2.2858220000     3.0992010000     0.0937360000 
 N        1.7258070000     2.7493760000    -1.1985450000 
 C        4.6474840000     2.9795730000    -0.7002970000 
 C        5.1405110000     2.3053360000    -1.7296610000 
 H        5.3348050000     2.1986560000     3.0680480000 
 H        6.0404880000     2.1612720000     1.4338500000 
 H        4.9404950000     0.8636910000     1.9569720000 
 H        3.5280770000     1.3582510000     0.1141660000 
 H        2.4028440000     4.1799370000     0.2693280000 
 H        1.6307670000     2.7145420000     0.8795880000 
 H        2.2949360000     3.1304350000    -1.9450430000 
 H        0.7965810000     3.1352890000    -1.2996680000 
 H        4.9466920000     4.0126790000    -0.5268160000 
 H        4.8560410000     1.2738450000    -1.9138890000 
 H        5.8393570000     2.7562270000    -2.4253590000 
*
