! RI PBE def2-SVP def2-SVP/J NBO PAL2
% maxcore 2000
% output
    # printlevel mini
    print[ P_Basis ] 0
    print[ P_SCFInfo ] 1
    print[ P_SCFIterInfo ] 1
    print[ P_OrbEn ] 0
    print[ P_Cartesian ] 0
end
*xyz 0 1
 C        2.3347800000    -0.4660570000    -0.7254630000 
 O        2.1635550000    -0.5400430000     0.6672530000 
 C        2.7296190000     0.5416010000     1.3651230000 
 C        2.2810480000     0.4248440000     2.8177850000 
 N        2.7424000000     1.5701090000     3.5767650000 
 C        4.1938200000     0.5626540000     1.2660640000 
 C        5.3934130000     0.5741460000     1.2078940000 
 H        1.8266720000    -1.3290850000    -1.1551280000 
 H        3.3944160000    -0.4969860000    -1.0048320000 
 H        1.8894680000     0.4514680000    -1.1335290000 
 H        2.3503750000     1.4955550000     0.9668020000 
 H        2.6174110000    -0.5511080000     3.1953190000 
 H        1.1885950000     0.4178510000     2.8112040000 
 H        3.7505470000     1.5443140000     3.6745580000 
 H        2.3485420000     1.5605020000     4.5079000000 
 H        6.4562510000     0.5833570000     1.1463460000 
*
