! RI PBE def2-SVP def2-SVP/J NBO PAL2
% maxcore 2000
% output
    # printlevel mini
    print[ P_Basis ] 0
    print[ P_SCFInfo ] 1
    print[ P_SCFIterInfo ] 1
    print[ P_OrbEn ] 0
    print[ P_Cartesian ] 0
end
*xyz 0 1
 C        1.0705050000    -0.0145100000    -0.3961650000 
 O        2.4295000000     0.2704950000    -0.2181660000 
 C        3.0337270000     0.7808070000    -1.3792770000 
 C        4.5028570000     1.0192230000    -1.0762710000 
 N        5.2132100000    -0.1689550000    -0.6218120000 
 C        5.2639640000     1.6264270000    -2.2144880000 
 C        4.7847600000     1.9871170000    -3.3969960000 
 H        0.6876990000    -0.4025710000     0.5481870000 
 H        0.9159160000    -0.7689830000    -1.1803030000 
 H        0.5015460000     0.8857690000    -0.6670210000 
 H        2.5417370000     1.7184620000    -1.6800180000 
 H        2.9293300000     0.0634500000    -2.2098040000 
 H        4.5387460000     1.7344170000    -0.2420680000 
 H        5.2549580000    -0.8507120000    -1.3719100000 
 H        4.6936150000    -0.5937140000     0.1375300000 
 H        6.3243320000     1.7491920000    -2.0071520000 
 H        3.7392990000     1.8777990000    -3.6643310000 
 H        5.4324980000     2.4174750000    -4.1519260000 
*
