! RI PBE def2-SVP def2-SVP/J NBO PAL2
% maxcore 2000
% output
    # printlevel mini
    print[ P_Basis ] 0
    print[ P_SCFInfo ] 1
    print[ P_SCFIterInfo ] 1
    print[ P_OrbEn ] 0
    print[ P_Cartesian ] 0
end
*xyz 0 1
 C        1.0048750000     0.2547650000    -0.1001250000 
 O        2.4005960000     0.2245980000     0.0241420000 
 C        2.8238420000     0.0418540000     1.3479420000 
 C        4.3525840000     0.0780940000     1.3526840000 
 N        4.9241590000     1.3067790000     0.8226960000 
 C        4.8376360000    -0.1769430000     2.7039770000 
 C        5.1998540000    -0.3730540000     3.8309950000 
 H        0.7715480000     0.4000280000    -1.1550380000 
 H        0.5674270000     1.0792590000     0.4794030000 
 H        0.5504000000    -0.6860050000     0.2388050000 
 H        2.4668550000    -0.9203530000     1.7436760000 
 H        2.4335880000     0.8414650000     1.9969720000 
 H        4.6912410000    -0.7426680000     0.7076830000 
 H        4.7433030000     2.0735390000     1.4605080000 
 H        4.4595830000     1.5218280000    -0.0524510000 
 H        5.5378180000    -0.5517850000     4.8243210000 
*
