! RI PBE def2-SVP def2-SVP/J NBO PAL2
% maxcore 2000
% output
    # printlevel mini
    print[ P_Basis ] 0
    print[ P_SCFInfo ] 1
    print[ P_SCFIterInfo ] 1
    print[ P_OrbEn ] 0
    print[ P_Cartesian ] 0
end
*xyz 0 1
 C        1.9314580000     0.3363190000    -0.8372070000 
 O        3.0980360000     0.3055400000    -0.0654790000 
 C        2.8783440000    -0.2123960000     1.2206290000 
 C        4.1981870000    -0.1827540000     1.9636420000 
 N        4.1252250000    -0.8044550000     3.2692790000 
 C        5.4420740000    -1.1165010000     3.7740720000 
 C        3.3887250000    -0.0091520000     4.2253860000 
 H        2.1911260000     0.7483270000    -1.8128060000 
 H        1.1594440000     0.9701890000    -0.3778120000 
 H        1.5118530000    -0.6701280000    -0.9764920000 
 H        2.5110320000    -1.2483270000     1.1693270000 
 H        2.1112820000     0.3847170000     1.7362790000 
 H        4.5592860000     0.8610580000     2.0187610000 
 H        4.9231200000    -0.7354620000     1.3600080000 
 H        5.9633350000    -1.7752890000     3.0762950000 
 H        5.3569230000    -1.6355500000     4.7316480000 
 H        6.0681200000    -0.2185430000     3.9300350000 
 H        2.3649220000     0.1557150000     3.8873370000 
 H        3.8538450000     0.9782810000     4.4042620000 
 H        3.3398830000    -0.5369090000     5.1803460000 
*
