! RI PBE def2-SVP def2-SVP/J NBO PAL2
% maxcore 2000
% output
    # printlevel mini
    print[ P_Basis ] 0
    print[ P_SCFInfo ] 1
    print[ P_SCFIterInfo ] 1
    print[ P_OrbEn ] 0
    print[ P_Cartesian ] 0
end
*xyz 0 1
 C        4.9240700000     0.8968190000    -0.0075560000 
 O        3.5983270000     0.4650190000    -0.1817010000 
 C        3.4056900000    -0.5666850000    -1.0297950000 
 C        4.3366890000    -1.2249890000    -1.7241070000 
 N        4.0387480000    -2.2812930000    -2.5782140000 
 C        4.9456470000    -2.9951960000    -3.3145260000 
 N        6.2072770000    -2.8821080000    -3.3992450000 
 H        4.8925800000     1.7239200000     0.6992910000 
 H        5.3551100000     1.2431960000    -0.9546610000 
 H        5.5515800000     0.0942490000     0.3985130000 
 H        2.3530520000    -0.8226830000    -1.0942930000 
 H        5.3838590000    -0.9680920000    -1.6580320000 
 H        3.0744300000    -2.5508550000    -2.6686330000 
 H        4.4585460000    -3.7729110000    -3.9054760000 
 H        6.5787840000    -2.1344020000    -2.8170850000 
*
