! RI PBE def2-SVP def2-SVP/J NBO PAL2
% maxcore 2000
% output
    # printlevel mini
    print[ P_Basis ] 0
    print[ P_SCFInfo ] 1
    print[ P_SCFIterInfo ] 1
    print[ P_OrbEn ] 0
    print[ P_Cartesian ] 0
end
*xyz 0 1
 C        1.5802510000     0.0500710000    -0.0243030000 
 O        2.9224090000     0.3239000000     0.3096360000 
 C        3.1565450000     0.8831720000     1.5165030000 
 C        2.2283170000     1.3069010000     2.3797770000 
 N        4.5268370000     0.9260480000     1.7198330000 
 C        5.2596840000     1.9226430000     2.3359120000 
 N        4.8832000000     2.9867440000     2.9038950000 
 H        1.6054630000    -0.4757980000    -0.9768040000 
 H        1.0063410000     0.9750610000    -0.1351820000 
 H        1.1080130000    -0.5796790000     0.7358810000 
 H        1.1788600000     1.2950570000     2.1317460000 
 H        2.5137980000     1.6389120000     3.3657430000 
 H        5.0476470000     0.2789640000     1.1505290000 
 H        6.3276400000     1.6993260000     2.2974410000 
 H        3.8722840000     3.1011900000     2.8603030000 
*
