! RI PBE def2-SVP def2-SVP/J NBO PAL2
% maxcore 2000
% output
    # printlevel mini
    print[ P_Basis ] 0
    print[ P_SCFInfo ] 1
    print[ P_SCFIterInfo ] 1
    print[ P_OrbEn ] 0
    print[ P_Cartesian ] 0
end
*xyz 0 1
 C        3.0157990000    -0.0777460000     1.2319630000 
 O        2.3083230000     0.1044670000     0.0228870000 
 C        3.0544990000     0.2783140000    -1.1151890000 
 C        2.4000860000     0.4565940000    -2.2809910000 
 N        1.0522920000     0.4725270000    -2.3849080000 
 C        4.4662570000     0.2706210000    -1.0674190000 
 N        5.6214070000     0.2630530000    -1.0141660000 
 H        2.2622320000    -0.1969030000     2.0088440000 
 H        3.6421670000     0.7893120000     1.4628390000 
 H        3.6451970000    -0.9721450000     1.1956280000 
 H        2.9718800000     0.5949930000    -3.1881190000 
 H        0.4872950000     0.3477160000    -1.5653510000 
 H        0.6024270000     0.6078860000    -3.2675490000 
*
