! RI PBE def2-SVP def2-SVP/J NBO PAL2
% maxcore 2000
% output
    # printlevel mini
    print[ P_Basis ] 0
    print[ P_SCFInfo ] 1
    print[ P_SCFIterInfo ] 1
    print[ P_OrbEn ] 0
    print[ P_Cartesian ] 0
end
*xyz 0 1
 C        1.3941350000    -0.2639380000     0.3335360000 
 O        2.6879410000     0.2133200000     0.5862140000 
 C        2.9622740000     1.4816540000     0.0151630000 
 C        2.4820060000     2.5947910000     0.9387060000 
 N        2.6218030000     3.9003510000     0.3126650000 
 C        4.4555230000     1.5353830000    -0.2294000000 
 N        4.8465370000     0.4935860000    -1.1602070000 
 H        1.3168120000    -1.2503520000     0.7926640000 
 H        1.2062060000    -0.3566540000    -0.7441410000 
 H        0.6170130000     0.3792800000     0.7662620000 
 H        2.4498510000     1.5727260000    -0.9526640000 
 H        3.0067060000     2.4929120000     1.9011270000 
 H        1.4200110000     2.4342420000     1.1416830000 
 H        3.5826140000     4.2160190000     0.3384100000 
 H        2.0749430000     4.5929930000     0.8062410000 
 H        4.9609030000     1.4777520000     0.7496580000 
 H        4.6970160000     2.5064260000    -0.6717350000 
 H        4.6037300000    -0.4060950000    -0.7634020000 
 H        5.8471360000     0.5003040000    -1.3083800000 
*
