! RI PBE def2-SVP def2-SVP/J NBO PAL2
% maxcore 2000
% output
    # printlevel mini
    print[ P_Basis ] 0
    print[ P_SCFInfo ] 1
    print[ P_SCFIterInfo ] 1
    print[ P_OrbEn ] 0
    print[ P_Cartesian ] 0
end
*xyz 0 1
 C        3.7761480000     0.8608610000     0.8454550000 
 O        2.7749840000     0.3269390000     0.0160690000 
 C        3.1494690000    -0.6581120000    -0.8254190000 
 C        4.3675510000    -1.1842830000    -0.9592720000 
 N        4.6586840000    -2.2062190000    -1.8623950000 
 C        5.8822420000    -2.7659160000    -2.0269920000 
 O        6.1309470000    -3.6501030000    -2.8108910000 
 H        3.3024350000     1.6328000000     1.4489500000 
 H        4.5843800000     1.3064730000     0.2531400000 
 H        4.1967190000     0.0910120000     1.5035580000 
 H        2.3097010000    -1.0019960000    -1.4200420000 
 H        5.2144700000    -0.8520380000    -0.3737250000 
 H        3.9252820000    -2.5761100000    -2.4495110000 
 H        6.6425880000    -2.3194000000    -1.3584260000 
*
