! RI PBE def2-SVP def2-SVP/J NBO PAL2
% maxcore 2000
% output
    # printlevel mini
    print[ P_Basis ] 0
    print[ P_SCFInfo ] 1
    print[ P_SCFIterInfo ] 1
    print[ P_OrbEn ] 0
    print[ P_Cartesian ] 0
end
*xyz 0 1
 C        3.0680760000    -2.9702000000    -0.8458330000 
 O        4.0467770000    -2.8535000000     0.1622700000 
 C        3.6448350000    -2.1610270000     1.3281260000 
 C        2.9794580000    -3.0626700000     2.3547880000 
 N        1.6334960000    -3.4498440000     1.9588990000 
 C        4.9123290000    -1.5390980000     1.8900740000 
 O        5.5749550000    -0.7624980000     0.9278290000 
 H        3.5514920000    -3.4422100000    -1.7023760000 
 H        2.6991980000    -1.9811930000    -1.1501490000 
 H        2.2230700000    -3.5783420000    -0.5153010000 
 H        2.9563630000    -1.3490010000     1.0424840000 
 H        3.0219680000    -2.5548730000     3.3326560000 
 H        3.5863300000    -3.9686070000     2.4388850000 
 H        1.0057580000    -2.6565610000     2.0136740000 
 H        1.2675150000    -4.1569570000     2.5833960000 
 H        5.5633570000    -2.3414390000     2.2707280000 
 H        4.6644660000    -0.8828030000     2.7274710000 
 H        5.5888480000    -1.3032760000     0.1292700000 
*
