! RI PBE def2-SVP def2-SVP/J NBO PAL2
% maxcore 2000
% output
    # printlevel mini
    print[ P_Basis ] 0
    print[ P_SCFInfo ] 1
    print[ P_SCFIterInfo ] 1
    print[ P_OrbEn ] 0
    print[ P_Cartesian ] 0
end
*xyz 0 1
 C        4.5495670000     2.4198230000     2.3227880000 
 O        5.0278860000     1.1461800000     2.6563890000 
 C        4.7259030000     0.1804160000     1.6748590000 
 C        5.3976600000    -1.1252500000     2.0417030000 
 N        6.8369900000    -0.9865400000     1.8881400000 
 C        5.0009610000    -1.5999370000     3.4412780000 
 O        3.6074200000    -1.7208080000     3.6312240000 
 H        4.8172120000     3.0979340000     3.1336690000 
 H        3.4568100000     2.4218410000     2.2034410000 
 H        4.9979520000     2.7849490000     1.3890050000 
 H        3.6372690000     0.0411010000     1.6017580000 
 H        5.0935460000     0.5066460000     0.6924370000 
 H        5.0458430000    -1.8667580000     1.3149140000 
 H        7.3108070000    -1.8451170000     2.1416110000 
 H        7.1755930000    -0.2605890000     2.5096750000 
 H        5.4468100000    -0.9256820000     4.1827620000 
 H        5.4229410000    -2.5958210000     3.6065470000 
 H        3.2555110000    -0.8414670000     3.7890800000 
*
