! RI PBE def2-SVP def2-SVP/J NBO PAL2
% maxcore 2000
% output
    # printlevel mini
    print[ P_Basis ] 0
    print[ P_SCFInfo ] 1
    print[ P_SCFIterInfo ] 1
    print[ P_OrbEn ] 0
    print[ P_Cartesian ] 0
end
*xyz 0 1
 C        1.7969660000     0.1786550000    -0.3419290000 
 O        1.3698820000    -0.4334030000     0.8682040000 
 C        2.3157980000    -0.7987790000     1.7307840000 
 C        1.7642430000    -1.4289340000     2.9637320000 
 N        3.5456300000    -0.5898000000     1.4441670000 
 N        4.3991670000    -1.0255130000     2.4408280000 
 C        5.6224360000    -0.8274160000     2.1761690000 
 H        0.8853960000     0.3959050000    -0.8954190000 
 H        2.4410600000    -0.4956070000    -0.9086460000 
 H        2.3509330000     1.0958150000    -0.1355520000 
 H        0.6778860000    -1.4637340000     2.9082020000 
 H        2.0759450000    -0.8644680000     3.8431040000 
 H        2.1653360000    -2.4362760000     3.0797370000 
 H        6.3577500000    -1.1421170000     2.9099750000 
 H        5.9487810000    -0.3571380000     1.2464620000 
*
