! RI PBE def2-SVP def2-SVP/J NBO PAL2
% maxcore 2000
% output
    # printlevel mini
    print[ P_Basis ] 0
    print[ P_SCFInfo ] 1
    print[ P_SCFIterInfo ] 1
    print[ P_OrbEn ] 0
    print[ P_Cartesian ] 0
end
*xyz 0 1
 C        4.0327370000    -0.4007190000    -0.6438150000 
 O        3.2218990000    -1.1452670000     0.2348850000 
 C        3.2050060000    -0.6493720000     1.5363890000 
 C        2.0852500000    -1.3548910000     2.2748330000 
 N        1.9754430000    -0.8104890000     3.6139530000 
 O        4.4535400000    -0.7739100000     2.1754630000 
 C        4.9402130000    -2.0916580000     2.3077360000 
 H        3.9395240000    -0.8565820000    -1.6292730000 
 H        5.0832650000    -0.4145180000    -0.3367770000 
 H        3.6981580000     0.6430930000    -0.6992010000 
 H        3.0242090000     0.4337240000     1.5394020000 
 H        2.2616750000    -2.4398580000     2.2235040000 
 H        1.1605950000    -1.1586040000     1.7267020000 
 H        2.8662360000    -0.8723190000     4.0914730000 
 H        1.2938620000    -1.3197040000     4.1598180000 
 H        5.9859930000    -2.0084840000     2.6039630000 
 H        4.8774320000    -2.6438730000     1.3654160000 
 H        4.4037730000    -2.6540680000     3.0817390000 
*
