! RI PBE def2-SVP def2-SVP/J NBO PAL2
% maxcore 2000
% output
    # printlevel mini
    print[ P_Basis ] 0
    print[ P_SCFInfo ] 1
    print[ P_SCFIterInfo ] 1
    print[ P_OrbEn ] 0
    print[ P_Cartesian ] 0
end
*xyz 0 1
 C        3.0187180000    -0.8139040000    -0.5674720000 
 O        2.6303800000    -0.5668710000     0.7656440000 
 C        2.8165510000     0.7358630000     1.1728670000 
 C        2.1656350000     0.9239320000     2.5158130000 
 O        4.2317230000     0.9662930000     1.2667380000 
 N        4.5252980000     2.2678980000     0.9663920000 
 C        5.7483200000     2.5396570000     1.1413440000 
 H        2.7612220000    -1.8496350000    -0.7858540000 
 H        4.0943990000    -0.6719080000    -0.7044300000 
 H        2.4808630000    -0.1557090000    -1.2617010000 
 H        2.4376640000     1.4505990000     0.4288270000 
 H        2.5841180000     0.2113270000     3.2284330000 
 H        1.0898670000     0.7595800000     2.4386410000 
 H        2.3461960000     1.9380780000     2.8743280000 
 H        6.0563410000     3.5515410000     0.9081770000 
 H        6.4699140000     1.8089590000     1.5035530000 
*
