! RI PBE def2-SVP def2-SVP/J NBO PAL2
% maxcore 2000
% output
    # printlevel mini
    print[ P_Basis ] 0
    print[ P_SCFInfo ] 1
    print[ P_SCFIterInfo ] 1
    print[ P_OrbEn ] 0
    print[ P_Cartesian ] 0
end
*xyz 0 1
 C        3.2100870000     0.1374330000     0.6976650000 
 O        2.5041190000    -0.8744010000     0.0046930000 
 C        3.1815410000    -1.6886340000    -0.8116380000 
 N        2.3317520000    -2.5749220000    -1.3704420000 
 C        4.5286920000    -1.6126670000    -1.0285150000 
 C        5.2414770000    -2.4907150000    -1.9050460000 
 O        6.4357860000    -2.4520600000    -2.1212780000 
 H        2.4638350000     0.6635080000     1.2893070000 
 H        3.6838600000     0.8322530000     0.0001560000 
 H        3.9659990000    -0.2944360000     1.3578470000 
 H        1.3594270000    -2.5305830000    -1.1315250000 
 H        2.6561170000    -3.2691320000    -2.0138970000 
 H        5.1103300000    -0.8568030000    -0.5222990000 
 H        4.6314780000    -3.2693420000    -2.4243180000 
*
