! RI PBE def2-SVP def2-SVP/J NBO PAL2
% maxcore 2000
% output
    # printlevel mini
    print[ P_Basis ] 0
    print[ P_SCFInfo ] 1
    print[ P_SCFIterInfo ] 1
    print[ P_OrbEn ] 0
    print[ P_Cartesian ] 0
end
*xyz 0 1
 C        1.1298300000    -0.0257000000    -1.8546100000 
 O        1.9881710000     0.1434690000    -0.7355730000 
 C        3.0358780000     0.9397610000    -0.9149580000 
 N        3.2810760000     1.5282130000    -2.0080440000 
 N        4.4613930000     2.3125510000    -1.9090410000 
 C        5.1605920000     2.3569770000    -3.1907650000 
 C        4.3588710000     3.5072710000    -2.7435690000 
 H        0.3406380000    -0.6987180000    -1.5255200000 
 H        1.6757110000    -0.4570000000    -2.6961780000 
 H        0.7110390000     0.9332400000    -2.1665050000 
 H        3.6540340000     1.0295130000    -0.0230560000 
 H        4.7455620000     1.7421800000    -3.9811240000 
 H        6.2416440000     2.3710990000    -3.1158400000 
 H        3.4049360000     3.6655470000    -3.2332940000 
 H        4.8350370000     4.3891060000    -2.3311340000 
*
