! RI PBE def2-SVP def2-SVP/J NBO PAL2
% maxcore 2000
% output
    # printlevel mini
    print[ P_Basis ] 0
    print[ P_SCFInfo ] 1
    print[ P_SCFIterInfo ] 1
    print[ P_OrbEn ] 0
    print[ P_Cartesian ] 0
end
*xyz 0 1
 C        2.4032380000    -1.2684570000    -0.4207760000 
 O        2.2920610000    -0.2196860000     0.5288040000 
 C        3.4041370000     0.4045630000     0.9672820000 
 N        3.3853360000     1.2439270000     1.9112930000 
 N        4.5789110000     0.0212090000     0.3212010000 
 C        5.7016120000     0.9220060000     0.3777020000 
 C        4.9582100000     0.7432490000    -0.8899780000 
 H        1.4034940000    -1.6916110000    -0.5050920000 
 H        3.1055820000    -2.0334970000    -0.0870520000 
 H        2.7177680000    -0.8949070000    -1.3983690000 
 H        2.4459940000     1.3232900000     2.2912670000 
 H        6.6639250000     0.4393060000     0.5031360000 
 H        5.5499060000     1.8428700000     0.9288240000 
 H        5.3646760000     0.1332970000    -1.6893560000 
 H        4.3132490000     1.5592390000    -1.2017760000 
*
