! RI PBE def2-SVP def2-SVP/J NBO PAL2
% maxcore 2000
% output
    # printlevel mini
    print[ P_Basis ] 0
    print[ P_SCFInfo ] 1
    print[ P_SCFIterInfo ] 1
    print[ P_OrbEn ] 0
    print[ P_Cartesian ] 0
end
*xyz 0 1
 C        1.2086520000     1.2051110000    -0.2715760000 
 O        2.5593200000     0.8002870000    -0.2616990000 
 C        3.2712440000     1.0779840000     0.8585520000 
 N        2.8961740000     1.6588130000     1.9193840000 
 N        4.5455570000     0.6129500000     0.6787820000 
 C        5.5435060000     0.7267440000     1.6233340000 
 C        6.7883210000     0.2826600000     1.4707260000 
 H        0.8094250000     0.9009160000    -1.2371320000 
 H        1.1182060000     2.2908660000    -0.1701350000 
 H        0.6404870000     0.7139180000     0.5241970000 
 H        1.9253520000     1.9405860000     1.8915850000 
 H        4.7390070000     0.1667810000    -0.2014680000 
 H        5.2087050000     1.2251370000     2.5249700000 
 H        7.1214270000    -0.2161180000     0.5670440000 
 H        7.5079260000     0.4147660000     2.2655270000 
*
