! RI PBE def2-SVP def2-SVP/J NBO PAL2
% maxcore 2000
% output
    # printlevel mini
    print[ P_Basis ] 0
    print[ P_SCFInfo ] 1
    print[ P_SCFIterInfo ] 1
    print[ P_OrbEn ] 0
    print[ P_Cartesian ] 0
end
*xyz 0 1
 C        1.1321860000    -0.2781700000     0.1047980000 
 O        2.5454130000    -0.1555410000     0.0780850000 
 C        3.2038030000    -0.9306260000     0.9670250000 
 O        2.6279820000    -1.6745100000     1.7293750000 
 C        4.6388980000    -0.7370450000     0.8649290000 
 C        5.4474150000    -1.4363610000     1.6828970000 
 N        6.7930450000    -1.3849790000     1.7280790000 
 H        0.7585550000     0.4012550000    -0.6592300000 
 H        0.7354240000    -0.0023010000     1.0835490000 
 H        0.8255290000    -1.3021360000    -0.1164120000 
 H        5.0159890000    -0.0342690000     0.1320680000 
 H        4.9831810000    -2.1197320000     2.3882110000 
 H        7.3119490000    -0.7832290000     1.1153540000 
 H        7.3069290000    -1.9480660000     2.3765720000 
*
