! RI PBE def2-SVP def2-SVP/J NBO PAL2
% maxcore 2000
% output
    # printlevel mini
    print[ P_Basis ] 0
    print[ P_SCFInfo ] 1
    print[ P_SCFIterInfo ] 1
    print[ P_OrbEn ] 0
    print[ P_Cartesian ] 0
end
*xyz 0 1
 C        1.3329560000     0.2391040000    -0.7364100000 
 O        2.7558510000     0.1919500000    -0.6746950000 
 C        3.2923240000    -1.0280170000    -0.7571280000 
 O        2.6472300000    -2.0335500000    -0.8925360000 
 C        4.7967270000    -0.9885290000    -0.6027130000 
 C        5.1265450000    -0.8858920000     0.8897990000 
 N        5.3505370000    -2.1468700000    -1.2708910000 
 H        1.0667130000     1.2903740000    -0.6531380000 
 H        0.8935420000    -0.3324010000     0.0823970000 
 H        0.9774630000    -0.1710580000    -1.6823750000 
 H        5.1494590000    -0.0768220000    -1.0964620000 
 H        4.7417040000    -1.7569730000     1.4261880000 
 H        4.7035250000     0.0180780000     1.3338770000 
 H        6.2105270000    -0.8520020000     1.0233380000 
 H        4.7379780000    -2.9415680000    -1.1251550000 
 H        6.2628100000    -2.3740220000    -0.8980860000 
*
