! RI PBE def2-SVP def2-SVP/J NBO PAL2
% maxcore 2000
% output
    # printlevel mini
    print[ P_Basis ] 0
    print[ P_SCFInfo ] 1
    print[ P_SCFIterInfo ] 1
    print[ P_OrbEn ] 0
    print[ P_Cartesian ] 0
end
*xyz 0 1
 C        1.2214080000    -0.1348620000    -0.4554720000 
 O        2.6324790000    -0.0908260000    -0.2992060000 
 C        3.0786750000    -0.5799260000     0.8774830000 
 O        2.3400660000    -1.0208060000     1.7302040000 
 N        4.4297350000    -0.5162140000     0.9764060000 
 C        5.2999740000     0.0092090000    -0.0442310000 
 C        5.0629230000    -1.0014390000     2.1751770000 
 H        1.0211620000     0.2880790000    -1.4382900000 
 H        0.7259360000     0.4530360000     0.3183000000 
 H        0.8561790000    -1.1613640000    -0.4030080000 
 H        4.7224230000     0.3452510000    -0.8992010000 
 H        6.0074760000    -0.7591550000    -0.3758950000 
 H        5.8788750000     0.8543140000     0.3451390000 
 H        4.2979250000    -1.3663910000     2.8556100000 
 H        5.6283130000    -0.2002800000     2.6636910000 
 H        5.7570300000    -1.8162250000     1.9416930000 
*
