! RI PBE def2-SVP def2-SVP/J NBO PAL2
% maxcore 2000
% output
    # printlevel mini
    print[ P_Basis ] 0
    print[ P_SCFInfo ] 1
    print[ P_SCFIterInfo ] 1
    print[ P_OrbEn ] 0
    print[ P_Cartesian ] 0
end
*xyz 0 1
 C        2.4941180000    -0.7954610000     0.9745510000 
 O        2.5405900000    -0.0607750000    -0.2280900000 
 C        2.8365650000     1.2803730000    -0.0815690000 
 O        4.2004950000     1.5468330000     0.1501570000 
 N        4.4721270000     1.5913110000     1.5069300000 
 C        5.7047130000     1.7741530000     1.7332150000 
 C        6.2003230000     1.8666800000     3.1291560000 
 H        2.0847920000    -1.7758450000     0.7305350000 
 H        1.8449910000    -0.3059950000     1.7112000000 
 H        3.4874290000    -0.9186250000     1.4154820000 
 H        2.2544570000     1.7331460000     0.7315030000 
 H        2.6152510000     1.7493380000    -1.0408750000 
 H        6.4059550000     1.8656990000     0.9012670000 
 H        5.3775670000     1.7570310000     3.8352750000 
 H        6.6906830000     2.8295730000     3.3006410000 
 H        6.9455540000     1.0901530000     3.3258430000 
*
