! RI PBE def2-SVP def2-SVP/J NBO PAL2
% maxcore 2000
% output
    # printlevel mini
    print[ P_Basis ] 0
    print[ P_SCFInfo ] 1
    print[ P_SCFIterInfo ] 1
    print[ P_OrbEn ] 0
    print[ P_Cartesian ] 0
end
*xyz 0 1
 C        3.1523770000    -0.8160190000     0.4314280000 
 O        2.1248550000    -0.2958240000    -0.4042500000 
 N        2.6498710000     0.4408430000    -1.4225000000 
 C        2.8708630000     1.7809780000    -1.3628360000 
 C        3.3647330000     2.1539780000    -2.5897140000 
 C        3.4328540000     0.9924980000    -3.3950240000 
 C        2.9790200000    -0.0632060000    -2.6415030000 
 H        2.6361880000    -1.3818130000     1.2062000000 
 H        3.7329150000    -0.0081670000     0.8850420000 
 H        3.8164560000    -1.4771010000    -0.1319580000 
 H        2.6448840000     2.3399030000    -0.4699300000 
 H        3.6361920000     3.1577000000    -2.8764590000 
 H        3.7666880000     0.9330140000    -4.4189330000 
 H        2.8471960000    -1.1095740000    -2.8616840000 
*
