! RI PBE def2-SVP def2-SVP/J NBO PAL2
% maxcore 2000
% output
    # printlevel mini
    print[ P_Basis ] 0
    print[ P_SCFInfo ] 1
    print[ P_SCFIterInfo ] 1
    print[ P_OrbEn ] 0
    print[ P_Cartesian ] 0
end
*xyz 0 1
 C        1.8575550000    -0.9713230000     0.5605470000 
 O        2.7181720000     0.0621170000     0.0871040000 
 N        2.9377070000     0.9890180000     1.0491840000 
 C        2.5433070000     2.2716870000     0.9734970000 
 C        3.0417900000     2.8708660000     2.1108460000 
 C        3.7133400000     1.8414710000     2.7852840000 
 N        3.6473500000     0.6929360000     2.1184440000 
 H        1.7539480000    -1.6580860000    -0.2778890000 
 H        0.8809460000    -0.5623250000     0.8347690000 
 H        2.3080750000    -1.4821720000     1.4126370000 
 H        1.9693730000     2.6349700000     0.1375960000 
 H        2.9338990000     3.9023030000     2.4028060000 
 H        4.2439470000     1.8815380000     3.7242740000 
*
