! RI PBE def2-SVP def2-SVP/J NBO PAL2
% maxcore 2000
% output
    # printlevel mini
    print[ P_Basis ] 0
    print[ P_SCFInfo ] 1
    print[ P_SCFIterInfo ] 1
    print[ P_OrbEn ] 0
    print[ P_Cartesian ] 0
end
*xyz 0 1
 C        1.7771420000     0.0584770000     1.2448700000 
 O        1.9456640000    -0.3313590000    -0.1150790000 
 N        2.6335860000    -1.5015400000    -0.2068860000 
 C        3.9927640000    -1.6227950000    -0.2733520000 
 C        4.2003640000    -2.9667130000    -0.4137130000 
 N        3.0129820000    -3.6430520000    -0.4374300000 
 C        2.0818780000    -2.7316770000    -0.3122870000 
 H        1.2158700000     0.9910440000     1.2079750000 
 H        2.7444080000     0.2257520000     1.7257740000 
 H        1.2122370000    -0.6957920000     1.7986140000 
 H        4.6453500000    -0.7674180000    -0.2309770000 
 H        5.1441560000    -3.4816950000    -0.5060960000 
 H        1.0134990000    -2.8847220000    -0.3017350000 
*
