! RI PBE def2-SVP def2-SVP/J NBO PAL2
% maxcore 2000
% output
    # printlevel mini
    print[ P_Basis ] 0
    print[ P_SCFInfo ] 1
    print[ P_SCFIterInfo ] 1
    print[ P_OrbEn ] 0
    print[ P_Cartesian ] 0
end
*xyz 0 1
 C        2.5246150000     1.1860480000     1.7915720000 
 O        2.3576960000     1.2947940000     0.3933080000 
 N        3.0836580000     2.3886920000    -0.0899600000 
 C        4.2369990000     2.0182560000    -0.9100680000 
 C        4.2934000000     3.2208520000    -1.8601700000 
 N        2.9244960000     3.7450370000    -1.9005830000 
 C        2.3276740000     3.2250380000    -0.9121970000 
 H        1.9386940000     0.3165700000     2.0920030000 
 H        2.1537990000     2.0770440000     2.3063940000 
 H        3.5744930000     1.0260000000     2.0570990000 
 H        4.0140050000     1.0857600000    -1.4424740000 
 H        5.1363370000     1.8870580000    -0.3084170000 
 H        4.6417850000     2.9690270000    -2.8627240000 
 H        4.9547320000     3.9998940000    -1.4650650000 
 H        1.2954270000     3.4176100000    -0.6394390000 
*
