! RI PBE def2-SVP def2-SVP/J NBO PAL2
% maxcore 2000
% output
    # printlevel mini
    print[ P_Basis ] 0
    print[ P_SCFInfo ] 1
    print[ P_SCFIterInfo ] 1
    print[ P_OrbEn ] 0
    print[ P_Cartesian ] 0
end
*xyz 0 1
 C        4.2534100000    -0.1449320000    -1.4107650000 
 O        4.3033620000    -0.5667160000    -0.0666720000 
 N        4.3303990000     0.5391710000     0.7576220000 
 C        4.3327710000     0.2129470000     1.9828310000 
 C        4.4254850000     1.2258000000     3.0452160000 
 C        5.7282390000     1.9691990000     3.2467370000 
 C        4.5292470000     2.6816050000     2.7173470000 
 H        4.2442190000    -1.0565450000    -2.0084290000 
 H        5.1306630000     0.4557690000    -1.6683830000 
 H        3.3472590000     0.4348650000    -1.6099250000 
 H        4.2939200000    -0.8409040000     2.2671210000 
 H        3.8966010000     0.9597570000     3.9539000000 
 H        6.5259570000     1.7420490000     2.5506830000 
 H        6.0450780000     2.1633970000     4.2639750000 
 H        4.5195070000     2.9418920000     1.6673930000 
 H        4.0158840000     3.3751350000     3.3711610000 
*
