! RI PBE def2-SVP def2-SVP/J NBO PAL2
% maxcore 2000
% output
    # printlevel mini
    print[ P_Basis ] 0
    print[ P_SCFInfo ] 1
    print[ P_SCFIterInfo ] 1
    print[ P_OrbEn ] 0
    print[ P_Cartesian ] 0
end
*xyz 0 1
 C        1.4018060000    -0.4094630000     0.7122490000 
 O        2.7879110000    -0.2593650000     0.4745710000 
 N        3.1962010000    -1.2003420000    -0.4286530000 
 C        4.4513330000    -1.0994220000    -0.6737840000 
 C        5.3516210000    -0.0796320000    -0.0485970000 
 C        4.9892690000    -2.0324780000    -1.6043000000 
 C        5.5115070000    -2.7877370000    -2.3803540000 
 H        1.1396310000     0.3623660000     1.4353100000 
 H        1.1837860000    -1.3972620000     1.1255380000 
 H        0.8323720000    -0.2660800000    -0.2093230000 
 H        4.9912200000     0.9266360000    -0.2749410000 
 H        6.3711390000    -0.1904570000    -0.4111510000 
 H        5.3376480000    -0.1846150000     1.0388240000 
 H        5.9540670000    -3.4663310000    -3.0705970000 
*
