! RI PBE def2-SVP def2-SVP/J NBO PAL2
% maxcore 2000
% output
    # printlevel mini
    print[ P_Basis ] 0
    print[ P_SCFInfo ] 1
    print[ P_SCFIterInfo ] 1
    print[ P_OrbEn ] 0
    print[ P_Cartesian ] 0
end
*xyz 0 1
 C        3.5044590000     0.5285330000     1.3835850000 
 O        4.1086180000     0.4629340000     0.1082580000 
 N        4.0629090000    -0.8259560000    -0.3540960000 
 C        4.5976270000    -0.9353840000    -1.5051310000 
 C        4.6520110000    -2.2249340000    -2.1748600000 
 C        4.0661120000    -3.4093860000    -1.4771510000 
 C        5.2209580000    -2.2991720000    -3.3816320000 
 H        3.5739790000     1.5718320000     1.6901110000 
 H        4.0340780000    -0.1050960000     2.1003290000 
 H        2.4550980000     0.2248710000     1.3353430000 
 H        5.0218300000    -0.0619230000    -2.0035370000 
 H        3.0072440000    -3.2457600000    -1.2621000000 
 H        4.5543940000    -3.5696460000    -0.5127270000 
 H        4.1714450000    -4.3092500000    -2.0835560000 
 H        5.6380470000    -1.4216550000    -3.8634610000 
 H        5.2851020000    -3.2376180000    -3.9196740000 
*
