! RI PBE def2-SVP def2-SVP/J NBO PAL2
% maxcore 2000
% output
    # printlevel mini
    print[ P_Basis ] 0
    print[ P_SCFInfo ] 1
    print[ P_SCFIterInfo ] 1
    print[ P_OrbEn ] 0
    print[ P_Cartesian ] 0
end
*xyz 0 1
 C        2.3711070000    -0.5738260000    -2.4263000000 
 O        3.2394340000    -0.1072670000    -1.4185110000 
 N        3.7187020000    -1.1856270000    -0.7020270000 
 C        4.5327760000    -0.8325480000     0.2121700000 
 C        4.9508130000     0.5728150000     0.4831530000 
 C        5.0767980000    -1.9433110000     1.0597540000 
 N        6.5298900000    -1.9833980000     0.9739390000 
 H        2.0173020000     0.3133950000    -2.9519060000 
 H        1.5214220000    -1.1110760000    -1.9952490000 
 H        2.8955230000    -1.2316760000    -3.1256340000 
 H        4.1208700000     1.1332560000     0.9243710000 
 H        5.2161290000     1.0836980000    -0.4439800000 
 H        5.8025870000     0.5863420000     1.1615890000 
 H        4.5699030000    -2.8718140000     0.7695620000 
 H        4.8134840000    -1.7358450000     2.1039110000 
 H        6.8169130000    -2.3242980000     0.0646710000 
 H        6.9116550000    -2.6136200000     1.6668800000 
*
