! RI PBE def2-SVP def2-SVP/J NBO PAL2
% maxcore 2000
% output
    # printlevel mini
    print[ P_Basis ] 0
    print[ P_SCFInfo ] 1
    print[ P_SCFIterInfo ] 1
    print[ P_OrbEn ] 0
    print[ P_Cartesian ] 0
end
*xyz 0 1
 C        1.4850490000    -0.2571620000    -0.8547550000 
 O        2.8757760000    -0.2022410000    -0.5759150000 
 N        3.2675370000     1.0892850000    -0.4589120000 
 C        4.5200180000     1.1806610000    -0.2063640000 
 C        5.4620280000     0.0314960000    -0.0529430000 
 C        5.0122830000     2.5162840000    -0.0680100000 
 N        5.4750670000     3.5634090000     0.0558050000 
 H        1.2446430000    -1.3161310000    -0.9355700000 
 H        1.2620810000     0.2517000000    -1.7946010000 
 H        0.9130930000     0.1972600000    -0.0433650000 
 H        5.1253010000    -0.6199290000     0.7568200000 
 H        6.4704360000     0.3804270000     0.1585590000 
 H        5.4687770000    -0.5683600000    -0.9659470000 
*
