! RI PBE def2-SVP def2-SVP/J NBO PAL2
% maxcore 2000
% output
    # printlevel mini
    print[ P_Basis ] 0
    print[ P_SCFInfo ] 1
    print[ P_SCFIterInfo ] 1
    print[ P_OrbEn ] 0
    print[ P_Cartesian ] 0
end
*xyz 0 1
 C        1.6177110000     0.3929410000    -0.3935930000 
 O        2.9899280000     0.3219280000    -0.0904000000 
 N        3.2648490000    -0.9136380000     0.4737310000 
 C        4.5046890000    -1.0162640000     0.7636080000 
 C        5.0371050000    -2.2048250000     1.3599590000 
 C        6.3434460000    -2.3132900000     1.6656370000 
 N        6.9545410000    -3.3861400000     2.2299350000 
 H        1.4575230000     1.3785780000    -0.8319870000 
 H        1.0073650000     0.2874300000     0.5089010000 
 H        1.3310190000    -0.3811270000    -1.1124610000 
 H        5.1796410000    -0.1817690000     0.5544970000 
 H        4.3468990000    -3.0193800000     1.5578700000 
 H        7.0100490000    -1.4812840000     1.4558100000 
 H        6.4366140000    -4.2114650000     2.4668110000 
 H        7.9357320000    -3.3781070000     2.4227720000 
*
