! RI PBE def2-SVP def2-SVP/J NBO PAL2
% maxcore 2000
% output
    # printlevel mini
    print[ P_Basis ] 0
    print[ P_SCFInfo ] 1
    print[ P_SCFIterInfo ] 1
    print[ P_OrbEn ] 0
    print[ P_Cartesian ] 0
end
*xyz 0 1
 C        2.2526670000    -1.1582590000    -0.8407660000 
 O        2.4504590000    -0.4238080000     0.3655250000 
 N        2.8807450000    -1.2599030000     1.3617530000 
 C        1.9243550000    -1.7936620000     2.2014520000 
 C        0.6111830000    -1.6015250000     2.1176090000 
 C        4.2376070000    -1.2952770000     1.5998140000 
 N        5.1549150000    -0.6873720000     0.9786360000 
 H        1.9007530000    -0.4287020000    -1.5694580000 
 H        1.4986870000    -1.9364300000    -0.7002760000 
 H        3.1907650000    -1.6024420000    -1.1832530000 
 H        2.3606010000    -2.4257850000     2.9675830000 
 H        0.1712670000    -0.9565040000     1.3696160000 
 H       -0.0410000000    -2.0881710000     2.8280680000 
 H        4.4804850000    -1.9598150000     2.4301490000 
 H        4.7633120000    -0.0854450000     0.2549590000 
*
