! RI PBE def2-SVP def2-SVP/J NBO PAL2
% maxcore 2000
% output
    # printlevel mini
    print[ P_Basis ] 0
    print[ P_SCFInfo ] 1
    print[ P_SCFIterInfo ] 1
    print[ P_OrbEn ] 0
    print[ P_Cartesian ] 0
end
*xyz 0 1
 C        6.1559440000     0.5639030000    -0.0147880000 
 O        5.9400820000     0.0583830000    -1.3146980000 
 N        4.5963020000     0.0994890000    -1.6089090000 
 C        4.3415010000    -0.3346560000    -2.7718860000 
 C        2.9414340000    -0.3765680000    -3.2820130000 
 C        1.8780770000    -0.0435050000    -2.2479230000 
 O        1.9851060000     1.2654670000    -1.7479070000 
 H        7.2288680000     0.4852720000     0.1585280000 
 H        5.6176420000    -0.0266220000     0.7319130000 
 H        5.8489700000     1.6114610000     0.0578530000 
 H        5.1562390000    -0.6734810000    -3.4157170000 
 H        2.7529520000    -1.3772340000    -3.6905990000 
 H        2.8616470000     0.3144770000    -4.1310160000 
 H        1.9202300000    -0.7826960000    -1.4358200000 
 H        0.8919360000    -0.1216030000    -2.7116640000 
 H        2.8395710000     1.3062030000    -1.3005750000 
*
