! RI PBE def2-SVP def2-SVP/J NBO PAL2
% maxcore 2000
% output
    # printlevel mini
    print[ P_Basis ] 0
    print[ P_SCFInfo ] 1
    print[ P_SCFIterInfo ] 1
    print[ P_OrbEn ] 0
    print[ P_Cartesian ] 0
end
*xyz 0 1
 C        3.0264160000    -1.3465040000    -1.6066620000 
 O        3.8642430000    -0.7311430000    -0.6521200000 
 N        3.3165420000     0.4766080000    -0.2808060000 
 C        4.0170740000     1.0774250000     0.5980180000 
 C        5.2778010000     0.5511040000     1.1956750000 
 C        3.4914270000     2.4106260000     1.0377960000 
 O        3.2126080000     2.4426970000     2.4243780000 
 H        3.5113760000    -2.2870190000    -1.8680780000 
 H        2.9246850000    -0.7222340000    -2.4985990000 
 H        2.0350740000    -1.5456570000    -1.1898330000 
 H        5.1772310000    -0.5049400000     1.4505840000 
 H        5.5399820000     1.1191630000     2.0876870000 
 H        6.0959450000     0.6249300000     0.4725900000 
 H        2.6141790000     2.6635310000     0.4334220000 
 H        4.2536310000     3.1787640000     0.8753240000 
 H        2.5025870000     1.8176380000     2.5952450000 
*
