! RI PBE def2-SVP def2-SVP/J NBO PAL2
% maxcore 2000
% output
    # printlevel mini
    print[ P_Basis ] 0
    print[ P_SCFInfo ] 1
    print[ P_SCFIterInfo ] 1
    print[ P_OrbEn ] 0
    print[ P_Cartesian ] 0
end
*xyz 0 1
 C        3.8895480000     0.7293690000     1.1810580000 
 O        4.9742890000     0.2285160000     0.4165050000 
 N        4.5110190000    -0.3765170000    -0.7013120000 
 C        5.4500550000    -0.8501360000    -1.4336550000 
 C        6.9053910000    -0.7796360000    -1.1498320000 
 C        4.9373360000    -1.5090070000    -2.6518100000 
 O        5.6444070000    -2.0228510000    -3.4805440000 
 H        4.3374590000     1.1980970000     2.0560170000 
 H        3.2284800000    -0.0836540000     1.4886310000 
 H        3.3244080000     1.4677900000     0.6083780000 
 H        7.2274850000     0.2607350000    -1.0623280000 
 H        7.4573650000    -1.2684180000    -1.9512180000 
 H        7.1326850000    -1.2643930000    -0.1974040000 
 H        3.8346740000    -1.4913940000    -2.7415850000 
*
