! RI PBE def2-SVP def2-SVP/J NBO PAL2
% maxcore 2000
% output
    # printlevel mini
    print[ P_Basis ] 0
    print[ P_SCFInfo ] 1
    print[ P_SCFIterInfo ] 1
    print[ P_OrbEn ] 0
    print[ P_Cartesian ] 0
end
*xyz 0 1
 C        1.3160900000    -0.4435750000     0.0849530000 
 O        2.7084750000    -0.4303160000    -0.1519410000 
 N        3.0634460000     0.7558300000    -0.7427990000 
 C        4.2992830000     0.8423350000    -0.9932160000 
 C        4.8157760000     2.0924490000    -1.6338120000 
 C        5.5919500000     1.7799010000    -2.9032200000 
 O        3.7863000000     3.0020550000    -1.9157150000 
 H        1.1058780000    -1.4053360000     0.5519300000 
 H        0.7576480000    -0.3577790000    -0.8512950000 
 H        1.0247130000     0.3660190000     0.7598660000 
 H        4.9924790000     0.0365040000    -0.7487350000 
 H        5.5137980000     2.5498540000    -0.9116760000 
 H        4.9402920000     1.2977150000    -3.6346220000 
 H        6.4413910000     1.1242220000    -2.6955450000 
 H        5.9687990000     2.7085050000    -3.3341510000 
 H        2.9764000000     2.6375260000    -1.5345020000 
*
