! RI PBE def2-SVP def2-SVP/J NBO PAL2
% maxcore 2000
% output
    # printlevel mini
    print[ P_Basis ] 0
    print[ P_SCFInfo ] 1
    print[ P_SCFIterInfo ] 1
    print[ P_OrbEn ] 0
    print[ P_Cartesian ] 0
end
*xyz 0 1
 C        2.0920250000     0.6907710000     0.2020960000 
 O        3.4317440000     0.2339830000     0.1221070000 
 N        3.5155120000    -1.0447050000     0.5612680000 
 C        4.7004660000    -1.5045370000     0.5102890000 
 C        4.9637780000    -2.8923420000     0.9557640000 
 C        3.8143890000    -3.7164370000     1.4565830000 
 O        6.0974630000    -3.3125880000     0.8999880000 
 H        2.1099620000     1.7158010000    -0.1650980000 
 H        1.7378160000     0.6706430000     1.2351780000 
 H        1.4376930000     0.0811520000    -0.4250780000 
 H        5.5453140000    -0.9188680000     0.1493570000 
 H        3.0469880000    -3.8060130000     0.6846960000 
 H        3.3415250000    -3.2281760000     2.3114190000 
 H        4.1804360000    -4.7011860000     1.7401190000 
*
