! RI PBE def2-SVP def2-SVP/J NBO PAL2
% maxcore 2000
% output
    # printlevel mini
    print[ P_Basis ] 0
    print[ P_SCFInfo ] 1
    print[ P_SCFIterInfo ] 1
    print[ P_OrbEn ] 0
    print[ P_Cartesian ] 0
end
*xyz 0 1
 C        1.6753910000     1.4277090000     0.0570600000 
 O        2.9875040000     0.9703730000    -0.1665080000 
 N        3.4520480000     0.3810890000     1.0024810000 
 C        4.6398700000    -0.0614780000     0.8853360000 
 C        5.5253490000    -0.0129490000    -0.3064170000 
 O        5.2192310000    -0.6578320000     1.9391110000 
 C        4.4483840000    -0.7508170000     3.1250890000 
 H        1.3537770000     1.8794430000    -0.8818640000 
 H        1.6478340000     2.1762490000     0.8552720000 
 H        1.0069600000     0.6007020000     0.3167830000 
 H        5.0239450000     0.4755350000    -1.1370660000 
 H        5.8096750000    -1.0279310000    -0.5926590000 
 H        6.4418790000     0.5274330000    -0.0595870000 
 H        5.0827930000    -1.2570260000     3.8504970000 
 H        3.5343560000    -1.3232650000     2.9510990000 
 H        4.1701930000     0.2416530000     3.4870720000 
*
