! RI PBE def2-SVP def2-SVP/J NBO PAL2
% maxcore 2000
% output
    # printlevel mini
    print[ P_Basis ] 0
    print[ P_SCFInfo ] 1
    print[ P_SCFIterInfo ] 1
    print[ P_OrbEn ] 0
    print[ P_Cartesian ] 0
end
*xyz 0 1
 C        3.2378400000    -0.7866890000    -0.5975450000 
 O        4.2725050000     0.1663420000    -0.6583220000 
 N        4.0813400000     1.1029080000     0.3438530000 
 C        4.9964600000     1.9827490000     0.3249780000 
 N        4.9628380000     3.0819610000     1.1653610000 
 C        4.3946680000     2.9574270000     2.4843070000 
 C        5.8576870000     3.1352880000     2.3090250000 
 H        3.4334010000    -1.4899620000    -1.4073790000 
 H        2.2600410000    -0.3179840000    -0.7438560000 
 H        3.2435370000    -1.3174850000     0.3597170000 
 H        5.8169870000     1.9531320000    -0.3917760000 
 H        4.0360270000     1.9757500000     2.7740270000 
 H        3.7868440000     3.7948410000     2.8069700000 
 H        6.4855540000     2.2689710000     2.4951030000 
 H        6.3189610000     4.0985610000     2.4948260000 
*
