! RI PBE def2-SVP def2-SVP/J NBO PAL2
% maxcore 2000
% output
    # printlevel mini
    print[ P_Basis ] 0
    print[ P_SCFInfo ] 1
    print[ P_SCFIterInfo ] 1
    print[ P_OrbEn ] 0
    print[ P_Cartesian ] 0
end
*xyz 0 1
 C        5.3403600000    -0.8045430000     1.1531340000 
 O        6.0084160000    -1.2422970000    -0.0049160000 
 N        5.1341920000    -1.1646920000    -1.0822910000 
 C        5.7075040000    -1.5541380000    -2.1490390000 
 N        5.0404140000    -1.5656250000    -3.3388910000 
 C        5.5898560000    -1.9716820000    -4.5321380000 
 C        4.9664460000    -1.9946720000    -5.7088570000 
 H        6.0657500000    -0.8851080000     1.9631620000 
 H        4.4723470000    -1.4345800000     1.3718760000 
 H        5.0139160000     0.2354830000     1.0530030000 
 H        6.7424380000    -1.8933120000    -2.1688920000 
 H        4.0822670000    -1.2520700000    -3.3222070000 
 H        6.6240520000    -2.2903260000    -4.4467010000 
 H        3.9347680000    -1.6823240000    -5.8230360000 
 H        5.4915840000    -2.3331240000    -6.5897080000 
*
