! RI PBE def2-SVP def2-SVP/J NBO PAL2
% maxcore 2000
% output
    # printlevel mini
    print[ P_Basis ] 0
    print[ P_SCFInfo ] 1
    print[ P_SCFIterInfo ] 1
    print[ P_OrbEn ] 0
    print[ P_Cartesian ] 0
end
*xyz 0 1
 C        1.6958040000     0.0719580000     0.0906680000 
 O        2.6656300000     0.9734400000    -0.4108170000 
 N        3.2897640000     1.6243270000     0.6466820000 
 C        4.6628730000     1.3629660000     0.7316410000 
 N        5.2877660000     0.4539030000     0.1031510000 
 C        5.3883190000     2.2114600000     1.6898280000 
 C        4.8365520000     2.9795180000     2.6230520000 
 H        1.2690490000    -0.4177530000    -0.7853160000 
 H        0.9091140000     0.6020420000     0.6355970000 
 H        2.1524420000    -0.6743840000     0.7466580000 
 H        3.0784210000     2.6135880000     0.5833110000 
 H        4.6523590000    -0.0243080000    -0.5351920000 
 H        6.4655180000     2.1440050000     1.5854670000 
 H        3.7642010000     3.0263190000     2.7770930000 
 H        5.4518790000     3.5717190000     3.2895670000 
*
