! RI PBE def2-SVP def2-SVP/J NBO PAL2
% maxcore 2000
% output
    # printlevel mini
    print[ P_Basis ] 0
    print[ P_SCFInfo ] 1
    print[ P_SCFIterInfo ] 1
    print[ P_OrbEn ] 0
    print[ P_Cartesian ] 0
end
*xyz 0 1
 C        2.5753320000     1.2067740000     0.5901290000 
 O        3.6868670000     0.4701490000     0.1336600000 
 N        3.2542870000    -0.4725340000    -0.7832140000 
 C        4.2259000000    -1.1554060000    -1.2159330000 
 O        4.0911290000    -2.1410170000    -2.1176640000 
 C        2.8455540000    -2.4359350000    -2.6073480000 
 C        2.6951120000    -3.4048660000    -3.4932050000 
 H        2.9734580000     1.9282790000     1.3036480000 
 H        1.8491550000     0.5573070000     1.0879910000 
 H        2.0860950000     1.7341350000    -0.2342160000 
 H        5.2579890000    -1.0164120000    -0.9059570000 
 H        2.0406070000    -1.8275660000    -2.2163680000 
 H        3.5366740000    -3.9842440000    -3.8515250000 
 H        1.7082400000    -3.6282650000    -3.8726880000 
*
