! RI PBE def2-SVP def2-SVP/J NBO PAL2
% maxcore 2000
% output
    # printlevel mini
    print[ P_Basis ] 0
    print[ P_SCFInfo ] 1
    print[ P_SCFIterInfo ] 1
    print[ P_OrbEn ] 0
    print[ P_Cartesian ] 0
end
*xyz 0 1
 C        2.8779070000    -3.3687290000    -2.3116220000 
 O        3.1325490000    -1.9800340000    -2.4381180000 
 N        3.5642710000    -1.4633580000    -1.2326520000 
 C        4.8037320000    -0.8753700000    -1.1405200000 
 O        5.0346990000    -0.1214340000    -0.2179540000 
 C        5.7996100000    -1.2691830000    -2.1656960000 
 C        7.0291780000    -0.7751760000    -2.1097420000 
 H        2.5373460000    -3.6963720000    -3.2941000000 
 H        2.0961860000    -3.5600470000    -1.5701460000 
 H        3.7850740000    -3.9112150000    -2.0299780000 
 H        2.8292940000    -0.9929690000    -0.7188260000 
 H        5.4904940000    -1.9467950000    -2.9512570000 
 H        7.3019260000    -0.0883060000    -1.3158930000 
 H        7.7805330000    -1.0395020000    -2.8440030000 
*
