! RI PBE def2-SVP def2-SVP/J NBO PAL2
% maxcore 2000
% output
    # printlevel mini
    print[ P_Basis ] 0
    print[ P_SCFInfo ] 1
    print[ P_SCFIterInfo ] 1
    print[ P_OrbEn ] 0
    print[ P_Cartesian ] 0
end
*xyz 0 1
 C        2.0493040000     0.0868940000    -1.0737250000 
 O        2.2617890000     0.3134660000     0.3113650000 
 N        3.2752120000     1.2242660000     0.5005270000 
 C        4.4459570000     0.8134700000     1.0783560000 
 O        5.2212020000     1.6002510000     1.5725960000 
 C        4.7104040000    -0.6106840000     0.9939110000 
 C        5.0054520000    -1.7731540000     0.9628910000 
 H        1.2278730000    -0.6272750000    -1.1277530000 
 H        2.9414680000    -0.3374550000    -1.5409730000 
 H        1.7681620000     1.0128780000    -1.5840350000 
 H        2.9487030000     2.1420300000     0.7757930000 
 H        5.2712760000    -2.8043980000     0.9406580000 
*
