! RI PBE def2-SVP def2-SVP/J NBO PAL2
% maxcore 2000
% output
    # printlevel mini
    print[ P_Basis ] 0
    print[ P_SCFInfo ] 1
    print[ P_SCFIterInfo ] 1
    print[ P_OrbEn ] 0
    print[ P_Cartesian ] 0
end
*xyz 0 1
 N        1.4152150000    -0.0745910000    -0.7223460000 
 C        2.7154840000     0.1620190000    -0.1696580000 
 C        3.5307150000    -0.9099320000     0.5234740000 
 C        3.9555680000    -0.3576950000    -0.8061310000 
 O        4.9521040000     0.6182530000    -0.7871070000 
 C        4.3096400000     1.8771890000    -0.6070230000 
 C        3.0586120000     1.5956790000     0.2234010000 
 H        1.4282900000    -0.8467330000    -1.3753450000 
 H        0.7451190000    -0.3013240000     0.0029320000 
 H        3.1191480000    -1.9136210000     0.5337350000 
 H        4.1293460000    -0.6386690000     1.3856810000 
 H        3.9381410000    -0.9841730000    -1.6937070000 
 H        4.0339610000     2.2936780000    -1.5850950000 
 H        5.0233240000     2.5507740000    -0.1293720000 
 H        2.2342660000     2.2598870000    -0.0376050000 
 H        3.2581780000     1.6892580000     1.2939770000 
*
