! RI PBE def2-SVP def2-SVP/J NBO PAL2
% maxcore 2000
% output
    # printlevel mini
    print[ P_Basis ] 0
    print[ P_SCFInfo ] 1
    print[ P_SCFIterInfo ] 1
    print[ P_OrbEn ] 0
    print[ P_Cartesian ] 0
end
*xyz 0 1
 N        1.6410790000    -0.4036970000    -0.8001090000 
 C        2.8754150000    -0.0673540000    -0.1715880000 
 C        3.6885880000    -1.1628700000     0.4406810000 
 C        4.1953000000    -0.4520930000    -0.7780230000 
 C        5.1174230000     0.7100310000    -0.5266410000 
 O        4.5164200000     1.4539150000     0.5235580000 
 C        3.1164400000     1.3072640000     0.4199480000 
 H        0.8905280000    -0.4723190000    -0.1237690000 
 H        1.3762350000     0.2896030000    -1.4899000000 
 H        3.3121790000    -2.1667070000     0.2926360000 
 H        4.1813790000    -0.9738370000     1.3882390000 
 H        4.2280310000    -0.9756350000    -1.7245440000 
 H        5.2141560000     1.3218590000    -1.4360480000 
 H        6.1192270000     0.4303690000    -0.1903250000 
 H        2.6801890000     2.0665880000    -0.2508880000 
 H        2.6937810000     1.4472920000     1.4196840000 
*
