! RI PBE def2-SVP def2-SVP/J NBO PAL2
% maxcore 2000
% output
    # printlevel mini
    print[ P_Basis ] 0
    print[ P_SCFInfo ] 1
    print[ P_SCFIterInfo ] 1
    print[ P_OrbEn ] 0
    print[ P_Cartesian ] 0
end
*xyz 0 1
 N        0.9586100000    -0.1662210000    -0.1614450000 
 C        2.3741250000    -0.0156610000    -0.1209030000 
 C        3.4284570000    -0.6028940000    -1.1179710000 
 C        4.3569150000    -0.2310100000     0.0429630000 
 C        3.2308480000    -0.6558700000     0.9967730000 
 O        4.2927020000     1.1984980000     0.0704180000 
 C        2.8834390000     1.4200200000    -0.0345310000 
 H        0.6911700000    -1.1379220000    -0.2477050000 
 H        0.5531200000     0.3375550000    -0.9408770000 
 H        3.5900180000    -0.0954410000    -2.0713460000 
 H        3.3128040000    -1.6793360000    -1.2511700000 
 H        5.3876130000    -0.5628760000     0.1336890000 
 H        3.1032280000    -1.7380460000     1.0498940000 
 H        3.2062970000    -0.2022580000     1.9889510000 
 H        2.6563020000     2.0088340000    -0.9309350000 
 H        2.5043400000     1.9437180000     0.8483040000 
*
