! RI PBE def2-SVP def2-SVP/J NBO PAL2
% maxcore 2000
% output
    # printlevel mini
    print[ P_Basis ] 0
    print[ P_SCFInfo ] 1
    print[ P_SCFIterInfo ] 1
    print[ P_OrbEn ] 0
    print[ P_Cartesian ] 0
end
*xyz 0 1
 N        1.1173080000     0.1358410000     0.1485440000 
 C        2.5497850000     0.0638690000     0.0593120000 
 C        3.1785150000    -0.8917480000    -0.9858240000 
 C        4.6808610000    -0.6753680000    -0.8152130000 
 C        4.6546870000     0.8766030000    -0.8006150000 
 C        3.1457900000     1.0467110000    -0.9589850000 
 O        2.8354420000     0.0847680000    -2.0085560000 
 H        0.7466370000    -0.6692190000     0.6383090000 
 H        0.7226620000     0.1324390000    -0.7857350000 
 H        2.9892440000     0.0578590000     1.0610370000 
 H        2.7971170000    -1.8944960000    -1.1801980000 
 H        5.2456540000    -1.0812960000    -1.6547670000 
 H        5.0665540000    -1.1123320000     0.1085290000 
 H        5.1939780000     1.3155070000    -1.6400920000 
 H        5.0339180000     1.3119530000     0.1259540000 
 H        2.7262490000     2.0388080000    -1.1221980000 
*
