! RI PBE def2-SVP def2-SVP/J NBO PAL2
% maxcore 2000
% output
    # printlevel mini
    print[ P_Basis ] 0
    print[ P_SCFInfo ] 1
    print[ P_SCFIterInfo ] 1
    print[ P_OrbEn ] 0
    print[ P_Cartesian ] 0
end
*xyz 0 1
 N        0.7140800000     0.1176060000    -0.1635440000 
 C        2.1041540000     0.0707310000     0.1333890000 
 C        3.0876270000    -0.9192620000    -0.4833660000 
 C        2.6259780000    -1.6982800000    -1.6969230000 
 C        2.7159050000    -0.6653260000    -2.8209900000 
 O        2.5823360000     0.6102450000    -2.2012380000 
 C        3.0885570000     0.5185260000    -0.8996190000 
 H        0.2447160000    -0.7591020000     0.0201940000 
 H        0.5680720000     0.3730710000    -1.1323580000 
 H        2.3534270000     0.3549180000     1.1525850000 
 H        3.8704310000    -1.3236180000     0.1457140000 
 H        1.6010840000    -2.0639060000    -1.5774710000 
 H        3.2665120000    -2.5611440000    -1.8852730000 
 H        1.9263290000    -0.7551340000    -3.5700840000 
 H        3.6872430000    -0.7260120000    -3.3297690000 
 H        3.8812500000     1.2217870000    -0.6700470000 
*
