! RI PBE def2-SVP def2-SVP/J NBO PAL2
% maxcore 2000
% output
    # printlevel mini
    print[ P_Basis ] 0
    print[ P_SCFInfo ] 1
    print[ P_SCFIterInfo ] 1
    print[ P_OrbEn ] 0
    print[ P_Cartesian ] 0
end
*xyz 0 1
 N        1.0764310000    -0.0755650000     0.0915060000 
 C        2.5177280000    -0.0455650000     0.0727700000 
 C        3.1142250000     1.0018440000    -0.9110040000 
 C        2.7680700000     0.0076150000    -2.0475340000 
 C        3.1721360000    -0.9925530000    -0.9586960000 
 O        4.5629450000    -0.7407690000    -0.7610630000 
 C        4.5914760000     0.6985850000    -0.7271550000 
 H        0.7074100000     0.7324600000     0.5771540000 
 H        0.7429070000    -0.8956490000     0.5826290000 
 H        2.9967740000    -0.0780610000     1.0618370000 
 H        2.8020320000     2.0458230000    -0.9148300000 
 H        3.3782080000     0.0263560000    -2.9518770000 
 H        1.7044860000    -0.0120690000    -2.2667410000 
 H        2.9872650000    -2.0645190000    -1.0030510000 
 H        5.2190300000     1.0822060000    -1.5375710000 
 H        4.9934460000     1.0395510000     0.2322170000 
*
