! RI PBE def2-SVP def2-SVP/J NBO PAL2
% maxcore 2000
% output
    # printlevel mini
    print[ P_Basis ] 0
    print[ P_SCFInfo ] 1
    print[ P_SCFIterInfo ] 1
    print[ P_OrbEn ] 0
    print[ P_Cartesian ] 0
end
*xyz 0 1
 N        0.7580170000     0.0877240000     0.0752650000 
 C        2.1858640000     0.0737130000     0.1877280000 
 C        3.1166910000    -0.8745880000    -0.5293720000 
 C        2.5457240000    -1.6040690000    -1.7154040000 
 O        1.8806000000    -0.6272490000    -2.5043400000 
 C        2.4968540000     0.6339770000    -2.2900260000 
 C        3.0696560000     0.5899960000    -0.8988980000 
 H        0.3474770000    -0.5822680000     0.7137730000 
 H        0.4701040000    -0.1671610000    -0.8624070000 
 H        2.5164650000     0.3455070000     1.1854200000 
 H        3.9657040000    -1.3069830000    -0.0131630000 
 H        1.8008190000    -2.3632040000    -1.4556360000 
 H        3.3477920000    -2.0923150000    -2.2865570000 
 H        1.7267160000     1.3971520000    -2.4331720000 
 H        3.2986420000     0.8106600000    -3.0207930000 
 H        3.8808770000     1.2664880000    -0.6590180000 
*
