! RI PBE def2-SVP def2-SVP/J NBO PAL2
% maxcore 2000
% output
    # printlevel mini
    print[ P_Basis ] 0
    print[ P_SCFInfo ] 1
    print[ P_SCFIterInfo ] 1
    print[ P_OrbEn ] 0
    print[ P_Cartesian ] 0
end
*xyz 0 1
 N        1.0607930000     0.0406370000    -0.4903690000 
 C        2.2424860000     0.0504630000     0.2966290000 
 C        3.4469470000     0.7885240000    -0.1966310000 
 O        3.4800650000     1.1776640000    -1.5445800000 
 C        3.5000920000     0.0381940000    -2.2880680000 
 C        3.5539300000    -1.0834890000    -1.5753310000 
 C        3.4773170000    -0.7260910000    -0.1444060000 
 H        0.5410330000     0.9024280000    -0.3968590000 
 H        0.4571320000    -0.7358290000    -0.2580250000 
 H        2.1537780000     0.0956250000     1.3831320000 
 H        3.9997030000     1.4591610000     0.4484630000 
 H        3.4697200000     0.1927580000    -3.3566110000 
 H        3.6081670000    -2.0838250000    -1.9747300000 
 H        4.0257280000    -1.2864190000     0.6030770000 
*
