! RI PBE def2-SVP def2-SVP/J NBO PAL2
% maxcore 2000
% output
    # printlevel mini
    print[ P_Basis ] 0
    print[ P_SCFInfo ] 1
    print[ P_SCFIterInfo ] 1
    print[ P_OrbEn ] 0
    print[ P_Cartesian ] 0
end
*xyz 0 1
 N        0.8550320000     0.0025180000    -0.1567890000 
 C        2.2469950000     0.0903870000     0.1199040000 
 C        3.2859570000    -0.8189790000    -0.5136310000 
 O        2.8385100000    -1.5791100000    -1.6026270000 
 C        2.9249960000    -0.7218850000    -2.7137360000 
 O        2.6750790000     0.5835160000    -2.2427320000 
 C        3.1873220000     0.6072060000    -0.9360630000 
 H        0.5157010000    -0.9434940000    -0.0387090000 
 H        0.6786540000     0.2716720000    -1.1169650000 
 H        2.5004420000     0.4046700000     1.1302110000 
 H        4.1092400000    -1.2419780000     0.0497730000 
 H        2.1596940000    -0.9938590000    -3.4426210000 
 H        3.9301860000    -0.7748200000    -3.1600960000 
 H        3.9250720000     1.3753560000    -0.7391000000 
*
