! RI PBE def2-SVP def2-SVP/J NBO PAL2
% maxcore 2000
% output
    # printlevel mini
    print[ P_Basis ] 0
    print[ P_SCFInfo ] 1
    print[ P_SCFIterInfo ] 1
    print[ P_OrbEn ] 0
    print[ P_Cartesian ] 0
end
*xyz 0 1
 N        0.8930480000    -0.1612680000    -0.3136070000 
 C        2.1533920000    -0.0872790000     0.3309590000 
 C        3.2559980000     0.6885640000    -0.3032090000 
 O        3.1098620000     1.0487200000    -1.6492970000 
 N        3.0775720000    -0.0910680000    -2.4333320000 
 C        3.2477060000    -1.1110390000    -1.6897460000 
 C        3.3600490000    -0.8159870000    -0.2570380000 
 H        0.4226720000     0.7326590000    -0.3364750000 
 H        0.2865180000    -0.8517750000     0.1041590000 
 H        2.1933020000    -0.0508470000     1.4199300000 
 H        3.8631080000     1.3865350000     0.2593680000 
 H        3.2908800000    -2.0888200000    -2.1503910000 
 H        4.0180930000    -1.3845060000     0.3868780000 
*
