! RI PBE def2-SVP def2-SVP/J NBO PAL2
% maxcore 2000
% output
    # printlevel mini
    print[ P_Basis ] 0
    print[ P_SCFInfo ] 1
    print[ P_SCFIterInfo ] 1
    print[ P_OrbEn ] 0
    print[ P_Cartesian ] 0
end
*xyz 0 1
 N        1.0167690000     0.2545920000    -0.1536940000 
 C        2.4422720000     0.1163170000    -0.0836690000 
 C        3.2190420000    -0.9692400000    -0.7808590000 
 C        3.2718560000     0.4571760000    -1.2685300000 
 C        4.5224540000     1.2515680000    -1.1312590000 
 C        4.5804590000     2.4830930000    -0.3492470000 
 O        5.1305480000     1.2725030000     0.1501420000 
 H        0.5636560000    -0.4321970000     0.4376870000 
 H        0.6840350000     0.1005180000    -1.0974330000 
 H        2.8546740000     0.4289950000     0.8701920000 
 H        2.6678730000    -1.6839350000    -1.3811970000 
 H        4.0992210000    -1.3619640000    -0.2847060000 
 H        2.7282780000     0.6621290000    -2.1876270000 
 H        5.2353920000     1.1391620000    -1.9483940000 
 H        3.6797500000     2.8233910000     0.1556970000 
 H        5.3068410000     3.2522910000    -0.5992120000 
*
