! RI PBE def2-SVP def2-SVP/J NBO PAL2
% maxcore 2000
% output
    # printlevel mini
    print[ P_Basis ] 0
    print[ P_SCFInfo ] 1
    print[ P_SCFIterInfo ] 1
    print[ P_OrbEn ] 0
    print[ P_Cartesian ] 0
end
*xyz 0 1
 N        0.9034680000     0.6781130000    -0.5231670000 
 C        2.2540400000     0.3052770000    -0.2143090000 
 C        2.9641580000    -0.8962050000    -0.7733290000 
 C        3.3204640000     0.4924100000    -1.2401210000 
 C        4.6185640000     1.1617710000    -0.8840010000 
 C        4.5062920000     2.6778360000    -0.9433450000 
 O        3.5583920000     3.2025580000    -0.0418650000 
 H        0.2424230000     0.1302260000     0.0149800000 
 H        0.6991000000     0.5170940000    -1.5017640000 
 H        2.5332410000     0.5812560000     0.7979110000 
 H        2.4195170000    -1.5286640000    -1.4651290000 
 H        3.6712750000    -1.4210860000    -0.1403210000 
 H        2.9509910000     0.7404500000    -2.2344990000 
 H        5.4132930000     0.8388880000    -1.5669860000 
 H        4.9219060000     0.8622990000     0.1250510000 
 H        4.2765670000     2.9867800000    -1.9747960000 
 H        5.4624100000     3.1348120000    -0.6767270000 
 H        2.7005190000     2.8124850000    -0.2406950000 
*
