! RI PBE def2-SVP def2-SVP/J NBO PAL2
% maxcore 2000
% output
    # printlevel mini
    print[ P_Basis ] 0
    print[ P_SCFInfo ] 1
    print[ P_SCFIterInfo ] 1
    print[ P_OrbEn ] 0
    print[ P_Cartesian ] 0
end
*xyz 0 1
 N        1.0987550000    -0.0375850000    -0.0915910000 
 C        2.5275300000    -0.1141710000    -0.0851370000 
 C        3.3375160000    -0.7879340000    -1.1383180000 
 C        3.2888190000     0.7274710000    -1.0723990000 
 C        4.4642290000     1.5101120000    -0.6542390000 
 O        5.2199970000     0.8753350000     0.2659310000 
 O        4.7461010000     2.6025920000    -1.0704760000 
 H        0.6964830000    -0.9047290000     0.2441110000 
 H        0.7434380000     0.1177130000    -1.0268350000 
 H        2.9466080000    -0.1319370000     0.9146130000 
 H        2.8144710000    -1.2393130000    -1.9729950000 
 H        4.2685580000    -1.2627790000    -0.8564650000 
 H        2.7057520000     1.2386970000    -1.8278950000 
 H        5.9489450000     1.4752380000     0.4738860000 
*
