! RI PBE def2-SVP def2-SVP/J NBO PAL2
% maxcore 2000
% output
    # printlevel mini
    print[ P_Basis ] 0
    print[ P_SCFInfo ] 1
    print[ P_SCFIterInfo ] 1
    print[ P_OrbEn ] 0
    print[ P_Cartesian ] 0
end
*xyz 0 1
 N        0.4855120000     0.3622400000    -0.3068510000 
 C        1.6091570000    -0.4995200000    -0.0956990000 
 C        2.2531040000    -1.3399530000    -1.1785180000 
 C        2.9411990000    -0.1309240000    -0.6464790000 
 O        4.0916270000    -0.3431060000     0.1107040000 
 C        4.2911330000     0.5510080000     1.1112650000 
 C        5.4280720000     0.6153030000     1.7882130000 
 H       -0.3565180000    -0.1740810000    -0.4779240000 
 H        0.6283980000     0.9613500000    -1.1097730000 
 H        1.6389110000    -0.9391060000     0.8963340000 
 H        1.8514070000    -1.2862760000    -2.1834610000 
 H        2.6646090000    -2.2997530000    -0.8908530000 
 H        2.9920640000     0.7476870000    -1.2888960000 
 H        3.4424220000     1.1963110000     1.3275690000 
 H        6.2615580000    -0.0367140000     1.5591580000 
 H        5.5280470000     1.3272440000     2.5949110000 
*
