! RI PBE def2-SVP def2-SVP/J NBO PAL2
% maxcore 2000
% output
    # printlevel mini
    print[ P_Basis ] 0
    print[ P_SCFInfo ] 1
    print[ P_SCFIterInfo ] 1
    print[ P_OrbEn ] 0
    print[ P_Cartesian ] 0
end
*xyz 0 1
 N        0.9831720000     0.0348340000    -0.4773030000 
 C        2.3818540000    -0.0742130000    -0.1777800000 
 C        3.2237210000    -0.8818050000    -1.1331790000 
 C        3.2830980000     0.6128050000    -1.1633990000 
 O        2.6483330000     1.2832300000    -2.2050980000 
 C        4.5044070000     1.3521170000    -0.7153350000 
 O        4.1981470000     2.6675500000    -0.3182210000 
 H        0.5289650000     0.7047280000     0.1298530000 
 H        0.5017340000    -0.8502590000    -0.3890270000 
 H        2.6881030000    -0.0730730000     0.8661820000 
 H        2.7105050000    -1.3550140000    -1.9622950000 
 H        4.0568360000    -1.4419510000    -0.7252230000 
 H        1.7036030000     1.0790460000    -2.0911530000 
 H        5.2443870000     1.3491040000    -1.5292140000 
 H        4.9515580000     0.8461640000     0.1439430000 
 H        3.6447650000     3.0312490000    -1.0182410000 
*
