! RI PBE def2-SVP def2-SVP/J NBO PAL2
% maxcore 2000
% output
    # printlevel mini
    print[ P_Basis ] 0
    print[ P_SCFInfo ] 1
    print[ P_SCFIterInfo ] 1
    print[ P_OrbEn ] 0
    print[ P_Cartesian ] 0
end
*xyz 0 1
 N        0.7474740000    -0.2118680000    -0.6060840000 
 C        2.1019090000    -0.2340230000    -0.1459260000 
 C        3.2617960000    -0.8346550000    -0.9161320000 
 C        3.1062230000     0.6455680000    -0.7749680000 
 O        3.9715330000     1.3336760000     0.1013240000 
 C        4.9462690000     2.0424720000    -0.4734160000 
 O        5.1354680000     2.1596320000    -1.6472170000 
 H        0.3425180000    -1.1396700000    -0.5796090000 
 H        0.6866950000     0.1179870000    -1.5605900000 
 H        2.1894730000    -0.3153550000     0.9329370000 
 H        3.0767910000    -1.2578720000    -1.8964860000 
 H        4.0489290000    -1.3103470000    -0.3438230000 
 H        2.8387250000     1.2218710000    -1.6528740000 
 H        5.5502080000     2.5178750000     0.3129660000 
*
