! RI PBE def2-SVP def2-SVP/J NBO PAL2
% maxcore 2000
% output
    # printlevel mini
    print[ P_Basis ] 0
    print[ P_SCFInfo ] 1
    print[ P_SCFIterInfo ] 1
    print[ P_OrbEn ] 0
    print[ P_Cartesian ] 0
end
*xyz 0 1
 N        1.0360010000    -0.0388780000     0.0551980000 
 C        2.4831610000    -0.0663470000     0.0474100000 
 C        3.0604270000    -1.2104460000     0.9176170000 
 C        3.8540290000    -0.3406980000     1.8964760000 
 C        4.5673300000     0.6688140000     0.9887780000 
 C        3.1011380000     1.0935330000     0.8486030000 
 O        2.8925070000     0.6936390000     2.2236430000 
 H        0.6597570000    -0.9236830000    -0.2614500000 
 H        0.6848230000     0.6753290000    -0.5712330000 
 H        2.9161940000    -0.0859980000    -0.9642030000 
 H        3.6809010000    -1.9158780000     0.3617650000 
 H        2.2651000000    -1.7509440000     1.4335140000 
 H        4.3219070000    -0.8086030000     2.7617540000 
 H        5.1081270000     0.3095230000     0.1104130000 
 H        5.1490650000     1.3926200000     1.5570890000 
 H        2.7817640000     2.1106080000     0.6216280000 
*
