! RI PBE def2-SVP def2-SVP/J NBO PAL2
% maxcore 2000
% output
    # printlevel mini
    print[ P_Basis ] 0
    print[ P_SCFInfo ] 1
    print[ P_SCFIterInfo ] 1
    print[ P_OrbEn ] 0
    print[ P_Cartesian ] 0
end
*xyz 0 1
 N        0.9540340000    -0.2613580000     0.1416750000 
 C        2.3716740000    -0.0038330000     0.2064890000 
 C        3.0348020000     1.1550650000     0.9856360000 
 C        4.1871230000     0.1798240000     1.3059040000 
 C        3.2110970000    -0.9821240000     1.0407830000 
 C        3.6215530000    -2.2660120000     0.3692390000 
 O        2.4896640000    -3.0490100000     0.0538550000 
 H        0.4758160000     0.3893750000    -0.4688890000 
 H        0.5293780000    -0.1929500000     1.0590570000 
 H        2.7580630000    -0.0040310000    -0.8197720000 
 H        2.4612760000     1.3933590000     1.8860340000 
 H        3.2629690000     2.0799960000     0.4528410000 
 H        4.6524350000     0.2395100000     2.2895030000 
 H        4.9683650000     0.2232800000     0.5424800000 
 H        2.6629520000    -1.2149770000     1.9625750000 
 H        4.2632780000    -2.8720520000     1.0167290000 
 H        4.2009850000    -2.0319210000    -0.5386890000 
 H        1.7747470000    -2.4435200000    -0.1836500000 
*
