! RI PBE def2-SVP def2-SVP/J NBO PAL2
% maxcore 2000
% output
    # printlevel mini
    print[ P_Basis ] 0
    print[ P_SCFInfo ] 1
    print[ P_SCFIterInfo ] 1
    print[ P_OrbEn ] 0
    print[ P_Cartesian ] 0
end
*xyz 0 1
 N        1.3160490000     0.4134580000     0.6568270000 
 C        2.3942860000    -0.1695490000    -0.1164780000 
 C        2.2813360000    -1.6670780000    -0.4786480000 
 C        3.0499230000    -1.8450260000    -1.7925470000 
 C        2.9268670000    -0.4969150000    -2.4547560000 
 O        1.6041880000     0.0319610000    -2.4253230000 
 C        2.5477850000     0.4970690000    -1.4605110000 
 H        1.2224180000    -0.0517830000     1.5512380000 
 H        0.4392190000     0.2895840000     0.1626160000 
 H        3.3274830000     0.0064220000     0.4341420000 
 H        1.2263110000    -1.9032250000    -0.6317550000 
 H        2.6504620000    -2.3129540000     0.3203750000 
 H        2.6592990000    -2.6579260000    -2.4100680000 
 H        4.1107560000    -2.0502070000    -1.6133970000 
 H        3.5038340000    -0.2487350000    -3.3406440000 
 H        2.8063640000     1.5491940000    -1.5275910000 
*
