! RI PBE def2-SVP def2-SVP/J NBO PAL2
% maxcore 2000
% output
    # printlevel mini
    print[ P_Basis ] 0
    print[ P_SCFInfo ] 1
    print[ P_SCFIterInfo ] 1
    print[ P_OrbEn ] 0
    print[ P_Cartesian ] 0
end
*xyz 0 1
 N        1.0405770000    -0.0603460000    -0.0411540000 
 C        2.4879230000     0.0932100000    -0.0459850000 
 C        3.0036980000     1.3978220000     0.5194420000 
 C        3.7144300000     1.2222550000     1.6328390000 
 C        3.8707620000    -0.2273790000     1.9141510000 
 O        4.5440020000    -0.9297310000     0.8589920000 
 C        3.1311600000    -0.9373820000     0.8664730000 
 H        0.6171790000     0.4873670000    -0.7791780000 
 H        0.6579610000     0.2757180000     0.8352990000 
 H        2.8392110000    -0.0589400000    -1.0722850000 
 H        2.8032740000     2.3524310000     0.0451440000 
 H        4.1639800000     2.0039120000     2.2321600000 
 H        4.0407710000    -0.6192760000     2.9107970000 
 H        2.6447810000    -1.8984610000     1.0044060000 
*
