! RI PBE def2-SVP def2-SVP/J NBO PAL2
% maxcore 2000
% output
    # printlevel mini
    print[ P_Basis ] 0
    print[ P_SCFInfo ] 1
    print[ P_SCFIterInfo ] 1
    print[ P_OrbEn ] 0
    print[ P_Cartesian ] 0
end
*xyz 0 1
 N        1.2930250000    -0.0923890000    -0.3106680000 
 C        2.6859760000     0.0892480000     0.0472520000 
 C        3.0857900000     1.2309220000     0.9813290000 
 C        4.4510710000     0.7982520000     1.5589690000 
 C        4.6065740000    -0.6998830000     1.2147700000 
 C        3.2224540000    -1.1340830000     0.7763720000 
 O        3.2383660000    -2.2893220000    -0.0178570000 
 H        0.9831460000     0.6030630000    -0.9766020000 
 H        0.6998260000    -0.0105640000     0.5078960000 
 H        3.2534510000     0.1662490000    -0.8887250000 
 H        2.3390560000     1.3140430000     1.7788300000 
 H        3.1209060000     2.1989810000     0.4770350000 
 H        4.4886980000     0.9670100000     2.6366640000 
 H        5.2674370000     1.3798250000     1.1272130000 
 H        4.9937440000    -1.2920460000     2.0448600000 
 H        5.2854530000    -0.8426970000     0.3693280000 
 H        2.5879520000    -1.2951650000     1.6677230000 
 H        2.3848750000    -2.3080260000    -0.4686790000 
*
