! RI PBE def2-SVP def2-SVP/J NBO PAL2
% maxcore 2000
% output
    # printlevel mini
    print[ P_Basis ] 0
    print[ P_SCFInfo ] 1
    print[ P_SCFIterInfo ] 1
    print[ P_OrbEn ] 0
    print[ P_Cartesian ] 0
end
*xyz 0 1
 N        0.9919700000    -0.0015340000     0.2889240000 
 C        2.4127030000    -0.1075780000     0.0515600000 
 C        2.9633200000    -1.3081930000    -0.6896320000 
 C        3.9887880000    -0.9661060000    -1.4644560000 
 C        4.2579360000     0.5128770000    -1.3789880000 
 C        2.9365630000     1.0523250000    -0.8209060000 
 O        2.0326020000     1.3488640000    -1.8689760000 
 H        0.6159610000    -0.8541960000     0.6813790000 
 H        0.5106350000     0.1975990000    -0.5792070000 
 H        2.9218070000    -0.0508430000     1.0255820000 
 H        2.5901110000    -2.3164190000    -0.5447230000 
 H        4.5897440000    -1.6497140000    -2.0533490000 
 H        4.5090920000     0.9837010000    -2.3331150000 
 H        5.0896200000     0.7163580000    -0.6924850000 
 H        3.0419800000     1.9773880000    -0.2535040000 
 H        2.0533570000     0.6066820000    -2.4830930000 
*
