! RI PBE def2-SVP def2-SVP/J NBO PAL2
% maxcore 2000
% output
    # printlevel mini
    print[ P_Basis ] 0
    print[ P_SCFInfo ] 1
    print[ P_SCFIterInfo ] 1
    print[ P_OrbEn ] 0
    print[ P_Cartesian ] 0
end
*xyz 0 1
 N        0.9677470000    -0.0410810000    -0.0069210000 
 C        2.4197170000    -0.1372650000    -0.0520660000 
 C        2.9533290000    -1.3536950000    -0.8427490000 
 C        3.2740490000    -0.7742390000    -2.1889430000 
 C        3.2510480000     0.5560320000    -2.1795710000 
 C        2.9810940000     1.0898650000    -0.8025050000 
 O        4.1572700000     1.6335510000    -0.2220470000 
 H        0.5758650000    -0.8389850000     0.4784810000 
 H        0.5884860000    -0.0578760000    -0.9481510000 
 H        2.7862510000    -0.1203640000     0.9763560000 
 H        2.2048050000    -2.1508280000    -0.8913410000 
 H        3.8470650000    -1.7999190000    -0.3885330000 
 H        3.5119390000    -1.3842170000    -3.0540050000 
 H        3.4749820000     1.1985730000    -3.0230570000 
 H        2.2465910000     1.8982770000    -0.7745110000 
 H        4.8933620000     1.0646710000    -0.4661380000 
*
