! RI PBE def2-SVP def2-SVP/J NBO PAL2
% maxcore 2000
% output
    # printlevel mini
    print[ P_Basis ] 0
    print[ P_SCFInfo ] 1
    print[ P_SCFIterInfo ] 1
    print[ P_OrbEn ] 0
    print[ P_Cartesian ] 0
end
*xyz 0 1
 N        0.9948120000    -0.1516360000    -0.0635780000 
 C        2.3410500000     0.0854490000    -0.0572000000 
 C        3.1204140000     1.1882130000    -0.0555730000 
 C        4.4870600000     0.7116310000    -0.0477910000 
 C        4.4116870000    -0.6366320000    -0.0453980000 
 N        5.3185700000    -1.6594350000    -0.0389010000 
 O        3.1093770000    -1.0412090000    -0.0510430000 
 H        0.3486180000     0.6096430000    -0.0671970000 
 H        0.6515200000    -1.0904500000    -0.0621590000 
 H        2.7871910000     2.2130220000    -0.0593720000 
 H        5.3852820000     1.3070050000    -0.0445790000 
 H        6.2980150000    -1.4650560000    -0.0332980000 
 H        5.0036250000    -2.6081350000    -0.0375290000 
*
