! RI PBE def2-SVP def2-SVP/J NBO PAL2
% maxcore 2000
% output
    # printlevel mini
    print[ P_Basis ] 0
    print[ P_SCFInfo ] 1
    print[ P_SCFIterInfo ] 1
    print[ P_OrbEn ] 0
    print[ P_Cartesian ] 0
end
*xyz 0 1
 N        1.0743010000    -0.1956900000    -0.1502580000 
 C        2.4304580000     0.0272210000     0.0071330000 
 C        3.2131420000     1.1254320000     0.1010460000 
 C        4.5746010000     0.6508580000     0.1032980000 
 C        4.4825840000    -0.6936820000     0.0300830000 
 O        5.3520080000    -1.7138490000     0.0225050000 
 O        3.1991950000    -1.0977710000    -0.0391240000 
 H        0.5429300000     0.6582770000    -0.0811600000 
 H        0.7082010000    -0.8930620000     0.4845650000 
 H        2.8793700000     2.1485440000     0.1648420000 
 H        5.4765800000     1.2382440000     0.1630040000 
 H        6.2358500000    -1.3585210000     0.1461560000 
*
