! RI PBE def2-SVP def2-SVP/J NBO PAL2
% maxcore 2000
% output
    # printlevel mini
    print[ P_Basis ] 0
    print[ P_SCFInfo ] 1
    print[ P_SCFIterInfo ] 1
    print[ P_OrbEn ] 0
    print[ P_Cartesian ] 0
end
*xyz 0 1
 N        1.0476610000     0.0852250000    -0.0463980000 
 C        2.4863880000    -0.0503900000     0.0349270000 
 C        3.1433250000    -1.2716640000    -0.5544150000 
 C        4.0978130000    -0.8812560000    -1.3972110000 
 N        4.1779070000     0.5100180000    -1.4646860000 
 C        3.2056260000     1.1061240000    -0.6949480000 
 O        2.9866420000     2.2858130000    -0.6224750000 
 H        0.5945960000    -0.6053920000     0.5380080000 
 H        0.7299890000    -0.0660800000    -0.9962520000 
 H        2.7674120000     0.0536220000     1.0916850000 
 H        2.8921570000    -2.2920580000    -0.3075700000 
 H        4.7762700000    -1.4826930000    -1.9858710000 
 H        4.7564250000     1.0327210000    -2.0986950000 
*
