! RI PBE def2-SVP def2-SVP/J NBO PAL2
% maxcore 2000
% output
    # printlevel mini
    print[ P_Basis ] 0
    print[ P_SCFInfo ] 1
    print[ P_SCFIterInfo ] 1
    print[ P_OrbEn ] 0
    print[ P_Cartesian ] 0
end
*xyz 0 1
 N        0.9695330000    -0.0637220000    -0.0575980000 
 C        2.3962840000     0.0831480000     0.0686000000 
 C        3.0873740000     1.1070050000     1.0089120000 
 C        4.1615120000     0.0452970000     1.3168880000 
 N        5.3592220000     0.2210790000     0.5252470000 
 C        3.1470010000    -1.0171630000     0.8256080000 
 O        3.6920790000    -2.0996880000     0.1273030000 
 H        0.5663620000     0.6731040000    -0.6223360000 
 H        0.5211800000    -0.0254350000     0.8503960000 
 H        2.8181960000     0.1628720000    -0.9379100000 
 H        2.4691410000     1.3307480000     1.8817560000 
 H        3.4466010000     2.0428690000     0.5776110000 
 H        4.4551850000    -0.0521730000     2.3637530000 
 H        5.1222670000     0.3592720000    -0.4506680000 
 H        5.9109180000    -0.6293810000     0.5547810000 
 H        2.5311850000    -1.3570470000     1.6731280000 
 H        2.9682810000    -2.6049840000    -0.2530600000 
*
