! RI PBE def2-SVP def2-SVP/J NBO PAL2
% maxcore 2000
% output
    # printlevel mini
    print[ P_Basis ] 0
    print[ P_SCFInfo ] 1
    print[ P_SCFIterInfo ] 1
    print[ P_OrbEn ] 0
    print[ P_Cartesian ] 0
end
*xyz 0 1
 N        0.9860680000     0.2003980000    -0.0848330000 
 C        2.4212190000     0.0697910000    -0.0291300000 
 C        3.1334370000     1.2328080000     0.6481650000 
 C        4.4445630000     0.6204750000     1.1456460000 
 N        4.0750270000    -0.7588590000     1.3776270000 
 C        2.9506590000    -1.1520220000     0.7301800000 
 O        2.4554530000    -2.2567530000     0.7395590000 
 H        0.6157180000     0.2831570000     0.8562750000 
 H        0.5933530000    -0.6554520000    -0.4629830000 
 H        2.7912990000    -0.0378210000    -1.0580020000 
 H        2.5359000000     1.5644150000     1.5033620000 
 H        3.2862070000     2.0899240000    -0.0065850000 
 H        4.8068420000     1.0939210000     2.0607160000 
 H        5.2347680000     0.7029500000     0.3886340000 
 H        4.6652740000    -1.4259210000     1.8459790000 
*
