! RI PBE def2-SVP def2-SVP/J NBO PAL2
% maxcore 2000
% output
    # printlevel mini
    print[ P_Basis ] 0
    print[ P_SCFInfo ] 1
    print[ P_SCFIterInfo ] 1
    print[ P_OrbEn ] 0
    print[ P_Cartesian ] 0
end
*xyz 0 1
 N        0.9258130000    -0.1015020000    -0.0983340000 
 C        2.3796120000    -0.1364250000    -0.0454730000 
 C        3.0900880000    -1.3456640000    -0.6008150000 
 C        3.9380780000    -0.9373420000    -1.5335740000 
 O        3.9444340000     0.4147840000    -1.7372330000 
 C        2.9918090000     0.9586470000    -0.9012180000 
 C        2.6943370000     2.2469010000    -0.9315520000 
 H        0.5354870000    -0.8170150000     0.5032760000 
 H        0.6098640000    -0.2919380000    -1.0426350000 
 H        2.6564980000     0.0200070000     1.0048180000 
 H        2.9411960000    -2.3636680000    -0.2748930000 
 H        4.6261340000    -1.4865030000    -2.1598740000 
 H        3.1914260000     2.9230430000    -1.6142190000 
 H        1.9288330000     2.6265660000    -0.2698740000 
*
