! RI PBE def2-SVP def2-SVP/J NBO PAL2
% maxcore 2000
% output
    # printlevel mini
    print[ P_Basis ] 0
    print[ P_SCFInfo ] 1
    print[ P_SCFIterInfo ] 1
    print[ P_OrbEn ] 0
    print[ P_Cartesian ] 0
end
*xyz 0 1
 N        0.8742240000     0.1877590000    -0.0003370000 
 C        2.2595880000     0.2282550000    -0.0266740000 
 C        3.1005750000     1.2967470000    -0.0242180000 
 N        2.7351360000     2.6383040000    -0.0592180000 
 C        4.4264170000     0.7648820000    -0.0716250000 
 C        4.2870520000    -0.5816560000    -0.0983610000 
 O        2.9908430000    -0.9365650000    -0.0841100000 
 H        0.4587530000    -0.1467010000    -0.8608970000 
 H        0.5011130000    -0.3424590000     0.7764890000 
 H        1.7534210000     2.7584100000     0.1490440000 
 H        3.2997060000     3.2235810000     0.5381040000 
 H        5.3534210000     1.3165820000    -0.0903770000 
 H        5.0034720000    -1.3864390000    -0.1281200000 
*
