! RI PBE def2-SVP def2-SVP/J NBO PAL2
% maxcore 2000
% output
    # printlevel mini
    print[ P_Basis ] 0
    print[ P_SCFInfo ] 1
    print[ P_SCFIterInfo ] 1
    print[ P_OrbEn ] 0
    print[ P_Cartesian ] 0
end
*xyz 0 1
 N        0.9465160000    -0.0239130000    -0.0471320000 
 C        2.3808740000     0.0716520000    -0.0459380000 
 C        3.1749690000     1.1237420000     0.7734710000 
 C        4.2356950000     0.0379540000     1.0348640000 
 O        5.2112710000    -0.0259020000     0.0135260000 
 C        3.1560760000    -1.0139640000     0.7360970000 
 N        3.5818080000    -2.2630040000     0.1786540000 
 H        0.5204320000     0.6974660000    -0.6147600000 
 H        0.5741760000     0.0672480000     0.8907500000 
 H        2.7310350000     0.0808540000    -1.0811370000 
 H        2.6480460000     1.3953320000     1.6926720000 
 H        3.5104930000     2.0318750000     0.2681090000 
 H        4.7049270000     0.0031920000     2.0234950000 
 H        5.7917850000     0.7334110000     0.1012630000 
 H        2.6071480000    -1.2040180000     1.6673030000 
 H        4.2021620000    -2.0945610000    -0.6039220000 
 H        2.7868770000    -2.7930720000    -0.1558170000 
*
