! RI PBE def2-SVP def2-SVP/J NBO PAL2
% maxcore 2000
% output
    # printlevel mini
    print[ P_Basis ] 0
    print[ P_SCFInfo ] 1
    print[ P_SCFIterInfo ] 1
    print[ P_OrbEn ] 0
    print[ P_Cartesian ] 0
end
*xyz 0 1
 N        0.8129580000     0.2509420000    -0.0617290000 
 C        2.2174790000     0.0831480000    -0.0582160000 
 C        3.0664530000     1.1367020000    -0.1758330000 
 O        2.8375060000     2.4398220000    -0.3087810000 
 O        4.3426840000     0.7578830000    -0.1491840000 
 C        4.3383250000    -0.6062160000    -0.0075870000 
 C        3.0711970000    -1.0665960000     0.0526910000 
 H        0.3822210000    -0.0637510000     0.7981710000 
 H        0.3662160000    -0.2318310000    -0.8307220000 
 H        1.8741570000     2.5318220000    -0.3081870000 
 H        5.3076220000    -1.0713470000     0.0311690000 
 H        2.7717710000    -2.0976700000     0.1625790000 
*
