! RI PBE def2-SVP def2-SVP/J NBO PAL2
% maxcore 2000
% output
    # printlevel mini
    print[ P_Basis ] 0
    print[ P_SCFInfo ] 1
    print[ P_SCFIterInfo ] 1
    print[ P_OrbEn ] 0
    print[ P_Cartesian ] 0
end
*xyz 0 1
 N        0.9570750000     0.1442430000    -0.0598410000 
 C        2.3982780000     0.0317880000    -0.0062750000 
 C        3.0628470000    -1.1791120000    -0.5931820000 
 C        3.9372170000    -0.7684880000    -1.4989160000 
 O        3.9981070000     0.5990350000    -1.6505940000 
 C        3.0743840000     1.1610690000    -0.7991860000 
 O        2.8983710000     2.3314890000    -0.7475510000 
 H        0.5259120000    -0.4861420000     0.6029530000 
 H        0.6106220000    -0.0922740000    -0.9815950000 
 H        2.7004720000     0.1779730000     1.0383100000 
 H        2.8646980000    -2.2039770000    -0.3188190000 
 H        4.6093070000    -1.3177040000    -2.1415930000 
*
