! RI PBE def2-SVP def2-SVP/J NBO PAL2
% maxcore 2000
% output
    # printlevel mini
    print[ P_Basis ] 0
    print[ P_SCFInfo ] 1
    print[ P_SCFIterInfo ] 1
    print[ P_OrbEn ] 0
    print[ P_Cartesian ] 0
end
*xyz 0 1
 N        0.9859680000     0.1406800000     0.2757760000 
 C        2.4308240000     0.0387210000     0.1052120000 
 C        2.9377610000    -1.3468410000    -0.3173790000 
 C        2.5972440000    -1.6367500000    -1.7672720000 
 O        3.1089980000    -0.6484170000    -2.6320070000 
 C        2.5788780000     0.6252890000    -2.3383120000 
 C        2.9082440000     1.0631340000    -0.9217090000 
 H        0.6649080000    -0.5243140000     0.9693220000 
 H        0.4991590000    -0.0805390000    -0.5842670000 
 H        2.8729150000     0.2913770000     1.0743810000 
 H        2.5087630000    -2.1206230000     0.3283780000 
 H        4.0260590000    -1.3889870000    -0.1990290000 
 H        1.5045220000    -1.7139400000    -1.8982990000 
 H        3.0299160000    -2.5855360000    -2.0908160000 
 H        1.4881930000     0.6186170000    -2.5019870000 
 H        3.0091500000     1.3138790000    -3.0682350000 
 H        2.4512890000     2.0339370000    -0.7123050000 
 H        3.9937270000     1.1748230000    -0.8397510000 
*
