! RI PBE def2-SVP def2-SVP/J NBO PAL2
% maxcore 2000
% output
    # printlevel mini
    print[ P_Basis ] 0
    print[ P_SCFInfo ] 1
    print[ P_SCFIterInfo ] 1
    print[ P_OrbEn ] 0
    print[ P_Cartesian ] 0
end
*xyz 0 1
 N        0.7877920000    -0.1052810000     0.1246710000 
 C        2.1875890000    -0.0732430000    -0.2485680000 
 C        3.1079070000    -0.0880530000     0.9494230000 
 C        2.9113570000     1.1031310000     1.8765140000 
 O        1.6574280000     1.1038340000     2.5115890000 
 C        2.6426380000    -0.7264920000    -1.5226350000 
 C        2.5538380000     0.7747340000    -1.4199290000 
 H        0.5188300000    -1.0391830000     0.4160570000 
 H        0.1944210000     0.1539940000    -0.6528910000 
 H        4.1442610000    -0.1043690000     0.5974600000 
 H        2.9509450000    -1.0119200000     1.5200900000 
 H        3.0656300000     2.0318810000     1.3037260000 
 H        3.6700720000     1.0822370000     2.6645260000 
 H        1.0135130000     0.8830090000     1.8172590000 
 H        1.8937440000    -1.2308290000    -2.1224290000 
 H        3.6259290000    -1.1813060000    -1.5520290000 
 H        1.7567000000     1.2726990000    -1.9605510000 
 H        3.4750190000     1.3427560000    -1.3719820000 
*
