! RI PBE def2-SVP def2-SVP/J NBO PAL2
% maxcore 2000
% output
    # printlevel mini
    print[ P_Basis ] 0
    print[ P_SCFInfo ] 1
    print[ P_SCFIterInfo ] 1
    print[ P_OrbEn ] 0
    print[ P_Cartesian ] 0
end
*xyz 0 1
 N        0.9500500000    -0.0207220000    -0.1383070000 
 C        2.4031130000     0.0483150000     0.0357390000 
 C        2.8779990000     1.2557050000     0.7910370000 
 C        3.4900140000     1.1790370000     1.9677260000 
 O        3.8224480000     0.0190890000     2.5914500000 
 C        3.4927240000    -1.1243970000     1.9331580000 
 C        2.8722570000    -1.1737270000     0.7605150000 
 H        0.6255250000     0.7354730000    -0.7304270000 
 H        0.4970860000     0.0864590000     0.7626390000 
 H        2.8182790000     0.0528780000    -0.9810160000 
 H        2.6784260000     2.2416620000     0.3857720000 
 H        3.7992810000     2.0367740000     2.5509290000 
 H        3.8128200000    -1.9970160000     2.4872420000 
 H        2.6545800000    -2.1430400000     0.3294530000 
*
