! RI PBE def2-SVP def2-SVP/J NBO PAL2
% maxcore 2000
% output
    # printlevel mini
    print[ P_Basis ] 0
    print[ P_SCFInfo ] 1
    print[ P_SCFIterInfo ] 1
    print[ P_OrbEn ] 0
    print[ P_Cartesian ] 0
end
*xyz 0 1
 N        0.9318860000    -0.0217550000    -0.1024050000 
 C        2.3969750000    -0.0330210000    -0.1158460000 
 C        2.9310830000    -1.3035930000     0.5581140000 
 C        3.2434910000    -0.9206570000     2.0131770000 
 O        4.3782920000    -1.5692240000     2.5532890000 
 C        3.3586920000     0.5759100000     1.9423870000 
 C        2.9213310000     1.0542450000     0.7852900000 
 H        0.5738270000    -0.6772160000    -0.7878090000 
 H        0.5832050000     0.8928960000    -0.3644700000 
 H        2.8010180000     0.0742410000    -1.1343150000 
 H        3.8686580000    -1.6076910000     0.0822610000 
 H        2.2325380000    -2.1380310000     0.4780540000 
 H        2.4257340000    -1.2020110000     2.6842470000 
 H        5.1432470000    -1.3035960000     2.0338410000 
 H        3.7319480000     1.1621970000     2.7746390000 
 H        2.8753540000     2.1044150000     0.5159450000 
*
