! RI PBE def2-SVP def2-SVP/J NBO PAL2
% maxcore 2000
% output
    # printlevel mini
    print[ P_Basis ] 0
    print[ P_SCFInfo ] 1
    print[ P_SCFIterInfo ] 1
    print[ P_OrbEn ] 0
    print[ P_Cartesian ] 0
end
*xyz 0 1
 N        0.9257600000     0.2769160000    -0.2797040000 
 C        2.3322610000     0.1149130000     0.0953600000 
 C        3.1277780000     1.3373740000    -0.3588490000 
 C        3.3650840000     1.2506340000    -1.8488260000 
 O        4.1506220000     0.1101790000    -2.1877470000 
 C        3.7796200000    -1.0203790000    -1.5630560000 
 C        2.9251830000    -1.1016810000    -0.5430040000 
 H        0.4309860000     0.8277370000     0.4124280000 
 H        0.4664130000    -0.6229160000    -0.3381290000 
 H        2.4508100000     0.0093120000     1.1847270000 
 H        4.0857830000     1.3777740000     0.1687270000 
 H        2.5786390000     2.2547410000    -0.1300510000 
 H        3.9126930000     2.1107670000    -2.2342490000 
 H        2.4005670000     1.1724830000    -2.3636370000 
 H        4.2768970000    -1.8876800000    -1.9837170000 
 H        2.6984950000    -2.0813660000    -0.1386630000 
*
