! RI PBE def2-SVP def2-SVP/J NBO PAL2
% maxcore 2000
% output
    # printlevel mini
    print[ P_Basis ] 0
    print[ P_SCFInfo ] 1
    print[ P_SCFIterInfo ] 1
    print[ P_OrbEn ] 0
    print[ P_Cartesian ] 0
end
*xyz 0 1
 N        1.0999540000     0.0014500000    -0.0654110000 
 C        2.4182320000    -0.1811070000    -0.0651180000 
 C        3.1859080000    -1.3037340000    -0.0662910000 
 C        4.5483720000    -0.8365910000    -0.0652110000 
 O        5.6109270000    -1.4143720000    -0.0654850000 
 C        4.3916440000     0.6926800000    -0.0630870000 
 N        3.1757490000     1.0517540000    -0.0631630000 
 H        0.4574520000    -0.7686440000    -0.0666400000 
 H        0.7495410000     0.9433480000    -0.0642630000 
 H        2.8689530000    -2.3334450000    -0.0677600000 
 H        5.2184580000     1.3968600000    -0.0617700000 
*
