! RI PBE def2-SVP def2-SVP/J NBO PAL2
% maxcore 2000
% output
    # printlevel mini
    print[ P_Basis ] 0
    print[ P_SCFInfo ] 1
    print[ P_SCFIterInfo ] 1
    print[ P_OrbEn ] 0
    print[ P_Cartesian ] 0
end
*xyz 0 1
 N        0.9308730000     0.0587410000    -0.0126470000 
 C        2.3004730000     0.1285810000    -0.0065160000 
 C        3.1344840000     1.2271250000    -0.0023120000 
 C        4.4649130000     0.7208640000     0.0032170000 
 O        5.6128490000     1.4501710000     0.0085680000 
 C        4.4186210000    -0.6411890000     0.0023260000 
 N        3.0695420000    -0.9853630000    -0.0037400000 
 H        0.3899270000     0.8985410000    -0.0138080000 
 H        0.4477580000    -0.8161740000    -0.0140250000 
 H        2.8266450000     2.2619080000    -0.0031380000 
 H        5.3800800000     2.3806080000     0.0082180000 
 H        5.1991590000    -1.3809100000     0.0053390000 
 H        2.7240870000    -1.9259930000    -0.0057930000 
*
