! RI PBE def2-SVP def2-SVP/J NBO PAL2
% maxcore 2000
% output
    # printlevel mini
    print[ P_Basis ] 0
    print[ P_SCFInfo ] 1
    print[ P_SCFIterInfo ] 1
    print[ P_OrbEn ] 0
    print[ P_Cartesian ] 0
end
*xyz 0 1
 N        1.0617660000     0.0296300000     0.0638310000 
 C        2.4120220000     0.1746500000     0.0698200000 
 C        3.2320750000     1.2643810000     0.0726410000 
 C        4.5580400000     0.7235190000     0.0789280000 
 O        5.7201150000     1.4176690000     0.0835360000 
 C        4.4554130000    -0.6232470000     0.0795080000 
 O        3.1139220000    -0.9621530000     0.0738060000 
 H        0.4627720000     0.8292570000     0.0612700000 
 H        0.6617280000    -0.8879150000     0.0635250000 
 H        2.9390530000     2.3023820000     0.0705320000 
 H        5.5194530000     2.3557030000     0.0820470000 
 H        5.1611430000    -1.4326760000     0.0832560000 
*
