! RI PBE def2-SVP def2-SVP/J NBO PAL2
% maxcore 2000
% output
    # printlevel mini
    print[ P_Basis ] 0
    print[ P_SCFInfo ] 1
    print[ P_SCFIterInfo ] 1
    print[ P_OrbEn ] 0
    print[ P_Cartesian ] 0
end
*xyz 0 1
 N        1.1114340000     0.0015090000     0.0461420000 
 C        2.4566900000    -0.0960010000    -0.0449660000 
 C        3.2484130000    -1.1804350000    -0.1382470000 
 C        4.6486700000    -0.7492500000    -0.2119730000 
 O        5.6538170000    -1.4206700000    -0.3030630000 
 N        4.6202360000     0.6286890000    -0.1565490000 
 C        3.2954780000     1.1540950000    -0.0505570000 
 H        0.5355490000    -0.8185570000     0.0499040000 
 H        0.6583660000     0.8925630000     0.1076270000 
 H        2.9552700000    -2.2187970000    -0.1596200000 
 H        5.4568200000     1.1804420000    -0.1893420000 
 H        3.0221770000     1.7971880000    -0.8980450000 
 H        3.1364910000     1.7283350000     0.8721880000 
*
