! RI PBE def2-SVP def2-SVP/J NBO PAL2
% maxcore 2000
% output
    # printlevel mini
    print[ P_Basis ] 0
    print[ P_SCFInfo ] 1
    print[ P_SCFIterInfo ] 1
    print[ P_OrbEn ] 0
    print[ P_Cartesian ] 0
end
*xyz 0 1
 N        0.9527250000     0.0201890000     0.0570120000 
 C        2.2874920000    -0.1299350000     0.0567030000 
 C        3.0892670000    -1.2121200000     0.0580390000 
 C        4.4627610000    -0.7031550000     0.0566930000 
 O        5.4960500000    -1.3058710000     0.0570850000 
 N        4.4280820000     0.7753320000     0.0542990000 
 C        3.1971940000     1.0648920000     0.0544330000 
 H        0.3363910000    -0.7714640000     0.0586160000 
 H        0.5399930000     0.9343630000     0.0559210000 
 H        2.8341050000    -2.2593630000     0.0597690000 
 H        2.8337490000     2.0921510000     0.0529510000 
*
