! RI PBE def2-SVP def2-SVP/J NBO PAL2
% maxcore 2000
% output
    # printlevel mini
    print[ P_Basis ] 0
    print[ P_SCFInfo ] 1
    print[ P_SCFIterInfo ] 1
    print[ P_OrbEn ] 0
    print[ P_Cartesian ] 0
end
*xyz 0 1
 N        1.1008390000     0.0264360000     0.0878340000 
 C        2.4420540000    -0.0822450000     0.0670010000 
 C        3.2399290000    -1.1613650000    -0.0250180000 
 C        4.6227140000    -0.7173160000    -0.0025990000 
 O        5.6443800000    -1.3354160000    -0.0609410000 
 O        4.6308480000     0.6629050000     0.1052550000 
 C        3.3096310000     1.1372030000     0.1545970000 
 H        0.5152250000    -0.7853350000     0.0292990000 
 H        0.6540930000     0.9205780000     0.1617950000 
 H        2.9640810000    -2.2009630000    -0.1041680000 
 H        3.1282250000     1.8215630000    -0.6824800000 
 H        3.1445700000     1.6825550000     1.0912360000 
*
