! RI PBE def2-SVP def2-SVP/J NBO PAL2
% maxcore 2000
% output
    # printlevel mini
    print[ P_Basis ] 0
    print[ P_SCFInfo ] 1
    print[ P_SCFIterInfo ] 1
    print[ P_OrbEn ] 0
    print[ P_Cartesian ] 0
end
*xyz 0 1
 N        1.0443310000    -0.2368300000     0.0790540000 
 C        2.4666760000    -0.0389290000     0.0791360000 
 C        3.2111500000     1.0786720000     0.8434820000 
 N        4.2631320000     0.0902750000     1.1366670000 
 C        3.3058170000    -1.0054250000     0.9268480000 
 C        3.7883330000    -2.2703030000     0.2622540000 
 O        2.6985120000    -3.1279690000    -0.0015390000 
 H        0.5684180000     0.4138610000    -0.5322990000 
 H        0.6537370000    -0.1378300000     1.0080640000 
 H        2.8221430000    -0.0679010000    -0.9550860000 
 H        2.6356420000     1.3944930000     1.7264940000 
 H        3.5422660000     1.9635030000     0.2930920000 
 H        4.6734480000     0.1437430000     2.0596660000 
 H        2.7427340000    -1.2710950000     1.8375330000 
 H        4.4795940000    -2.8198900000     0.9084400000 
 H        4.3314290000    -2.0073280000    -0.6567950000 
 H        1.9606460000    -2.5839670000    -0.3019100000 
*
