! RI PBE def2-SVP def2-SVP/J NBO PAL2
% maxcore 2000
% output
    # printlevel mini
    print[ P_Basis ] 0
    print[ P_SCFInfo ] 1
    print[ P_SCFIterInfo ] 1
    print[ P_OrbEn ] 0
    print[ P_Cartesian ] 0
end
*xyz 0 1
 N        1.1237390000     0.1341120000    -0.0454170000 
 C        2.5504150000     0.0381910000    -0.0646980000 
 C        3.3032980000    -0.8925350000    -0.9833800000 
 N        2.5804280000    -1.8082480000    -1.8043360000 
 C        3.3158970000     0.6070250000    -1.2143120000 
 C        4.5609780000     1.4077510000    -0.9751590000 
 O        4.3302100000     2.6760580000    -0.3936320000 
 H        0.6826640000    -0.6947040000     0.3324020000 
 H        0.7278720000     0.3387700000    -0.9511050000 
 H        2.9938230000     0.1979540000     0.9131430000 
 H        4.2243820000    -1.3027770000    -0.5765530000 
 H        2.8561040000    -1.7600620000    -2.7758860000 
 H        1.5837420000    -1.6406520000    -1.7476840000 
 H        2.7053430000     0.9342370000    -2.0555350000 
 H        5.1230280000     1.5083010000    -1.9150380000 
 H        5.2077990000     0.8779990000    -0.2706240000 
 H        3.6687890000     3.1341880000    -0.9179750000 
*
