! RI PBE def2-SVP def2-SVP/J NBO PAL2
% maxcore 2000
% output
    # printlevel mini
    print[ P_Basis ] 0
    print[ P_SCFInfo ] 1
    print[ P_SCFIterInfo ] 1
    print[ P_OrbEn ] 0
    print[ P_Cartesian ] 0
end
*xyz 0 1
 N        1.0057950000     0.0406170000     0.1720920000 
 C        2.4292700000     0.0910260000     0.0248480000 
 C        3.2878920000     1.1755980000     0.7512910000 
 N        4.0684650000     0.0910650000     1.3224310000 
 C        3.2177740000    -0.9732910000     0.8194130000 
 C        5.1420980000     0.0445940000     2.1234730000 
 O        5.6335240000    -0.9735630000     2.5601710000 
 H        0.5425390000     0.7608670000    -0.3659510000 
 H        0.7239660000     0.1383390000     1.1397970000 
 H        2.6683330000     0.0546390000    -1.0391320000 
 H        2.7191210000     1.7487110000     1.4931350000 
 H        3.8502510000     1.8636570000     0.1139250000 
 H        2.6273470000    -1.4613890000     1.6022070000 
 H        3.7406240000    -1.7390710000     0.2434660000 
 H        5.5469900000     1.0531000000     2.3413230000 
*
