! RI PBE def2-SVP def2-SVP/J NBO PAL2
% maxcore 2000
% output
    # printlevel mini
    print[ P_Basis ] 0
    print[ P_SCFInfo ] 1
    print[ P_SCFIterInfo ] 1
    print[ P_OrbEn ] 0
    print[ P_Cartesian ] 0
end
*xyz 0 1
 N        0.9796810000     0.0046670000     0.5655250000 
 C        2.3549890000     0.0274980000     0.0982680000 
 C        3.2558310000     1.1427710000     0.6942330000 
 N        4.4370100000     0.4337630000     1.1714270000 
 C        3.9333910000    -0.8363520000     1.6723980000 
 C        3.1037410000    -1.2704940000     0.4742910000 
 O        3.9471730000    -1.7091120000    -0.5669590000 
 H        0.4809020000     0.8258390000     0.2453450000 
 H        0.9449670000     0.0229440000     1.5789630000 
 H        2.3277560000     0.0840720000    -0.9912700000 
 H        2.6984830000     1.6324250000     1.5096170000 
 H        3.5298730000     1.9121770000    -0.0322060000 
 H        4.9754320000     0.9585630000     1.8463990000 
 H        3.2964480000    -0.7348340000     2.5690600000 
 H        4.7414930000    -1.5356810000     1.8943290000 
 H        2.4004970000    -2.0765490000     0.6834470000 
 H        4.6729140000    -1.0730980000    -0.5988570000 
*
