! RI PBE def2-SVP def2-SVP/J NBO PAL2
% maxcore 2000
% output
    # printlevel mini
    print[ P_Basis ] 0
    print[ P_SCFInfo ] 1
    print[ P_SCFIterInfo ] 1
    print[ P_OrbEn ] 0
    print[ P_Cartesian ] 0
end
*xyz 0 1
 N        0.9157800000    -0.0692570000    -0.0108110000 
 C        2.3547920000    -0.0553110000     0.0935910000 
 C        2.9946100000     1.0847690000     0.9144970000 
 N        4.2453020000     0.5028060000     1.3308770000 
 C        4.2565730000    -0.8599620000     1.3326380000 
 O        5.1568240000    -1.5589390000     1.7341330000 
 C        2.9251670000    -1.3041700000     0.7553440000 
 H        0.5709600000     0.7513440000    -0.4928930000 
 H        0.4841010000    -0.0915930000     0.9058010000 
 H        2.7569150000     0.0063350000    -0.9230240000 
 H        2.3505910000     1.3391110000     1.7689820000 
 H        3.1441730000     1.9911100000     0.3216670000 
 H        4.9853010000     1.0139200000     1.7827300000 
 H        2.2907420000    -1.6271370000     1.5895270000 
 H        3.0447790000    -2.1547350000     0.0866400000 
*
