! RI PBE def2-SVP def2-SVP/J NBO PAL2
% maxcore 2000
% output
    # printlevel mini
    print[ P_Basis ] 0
    print[ P_SCFInfo ] 1
    print[ P_SCFIterInfo ] 1
    print[ P_OrbEn ] 0
    print[ P_Cartesian ] 0
end
*xyz 0 1
 N        0.8885600000     0.0678020000     0.0465330000 
 C        2.2633450000     0.0551450000     0.0531530000 
 C        3.1097850000     1.1344650000     0.0569880000 
 N        4.4116820000     0.6332910000     0.0632330000 
 C        4.3685580000    -0.7176790000     0.0632740000 
 O        5.4717280000    -1.4989740000     0.0686000000 
 C        3.0622610000    -1.1272430000     0.0571590000 
 H        0.3791960000     0.9274120000     0.0448690000 
 H        0.3741110000    -0.7882110000     0.0451850000 
 H        2.9183080000     2.1937160000     0.0558710000 
 H        5.2393350000     1.1985430000     0.0669890000 
 H        6.2642750000    -0.9575530000     0.0726070000 
 H        2.7238460000    -2.1508940000     0.0557300000 
*
