! RI PBE def2-SVP def2-SVP/J NBO PAL2
% maxcore 2000
% output
    # printlevel mini
    print[ P_Basis ] 0
    print[ P_SCFInfo ] 1
    print[ P_SCFIterInfo ] 1
    print[ P_OrbEn ] 0
    print[ P_Cartesian ] 0
end
*xyz 0 1
 N        1.1361360000    -0.2000150000     0.4024150000 
 C        2.5119690000    -0.1527100000     0.0163800000 
 C        2.9900700000    -0.6555140000    -1.3116920000 
 O        2.0014370000    -1.1982150000    -2.1305420000 
 C        2.9595530000     0.8256900000    -1.0464810000 
 C        4.1687230000     1.6488270000    -0.8677780000 
 C        5.4260260000     1.2598880000    -1.0455100000 
 H        0.9715270000    -1.0261890000     0.9661780000 
 H        0.5602790000    -0.3047070000    -0.4261280000 
 H        3.1991790000    -0.2720290000     0.8467500000 
 H        3.9537110000    -1.1566970000    -1.3628050000 
 H        2.1662110000    -0.9162960000    -3.0340890000 
 H        2.1202180000     1.3341870000    -1.5161490000 
 H        3.9832960000     2.6682470000    -0.5341360000 
 H        5.6811990000     0.2603680000    -1.3814610000 
 H        6.2515540000     1.9362740000    -0.8596530000 
*
