! RI PBE def2-SVP def2-SVP/J NBO PAL2
% maxcore 2000
% output
    # printlevel mini
    print[ P_Basis ] 0
    print[ P_SCFInfo ] 1
    print[ P_SCFIterInfo ] 1
    print[ P_OrbEn ] 0
    print[ P_Cartesian ] 0
end
*xyz 0 1
 N        0.8760890000    -0.0678590000     0.1942950000 
 C        2.2929700000     0.0962860000     0.0723040000 
 C        3.0786710000     1.2093780000     0.7870470000 
 O        4.0369770000     0.2594910000     1.2661410000 
 C        3.1813210000    -0.8457790000     0.9110400000 
 C        3.8923420000    -1.9561370000     0.2367400000 
 C        3.7248580000    -3.2356670000     0.5394600000 
 H        0.3677910000     0.5213510000    -0.4508300000 
 H        0.5550540000     0.1399310000     1.1317300000 
 H        2.5641190000     0.0369460000    -0.9842460000 
 H        2.5148840000     1.6705260000     1.6106410000 
 H        3.5402150000     1.9938540000     0.1802980000 
 H        2.6370420000    -1.2185050000     1.7912450000 
 H        4.5652910000    -1.6623620000    -0.5662260000 
 H        3.0646130000    -3.5416470000     1.3449740000 
 H        4.2320730000    -4.0221060000    -0.0070830000 
*
