! RI PBE def2-SVP def2-SVP/J NBO PAL2
% maxcore 2000
% output
    # printlevel mini
    print[ P_Basis ] 0
    print[ P_SCFInfo ] 1
    print[ P_SCFIterInfo ] 1
    print[ P_OrbEn ] 0
    print[ P_Cartesian ] 0
end
*xyz 0 1
 N        0.8579350000     0.0920150000     0.1166170000 
 C        2.2868210000     0.1026510000     0.0966170000 
 C        3.1321340000     1.0704430000     0.9444830000 
 O        3.9361760000    -0.0093000000     1.4355160000 
 C        3.0067750000    -0.9839590000     0.9274540000 
 C        3.6255600000    -2.0971870000     0.2411270000 
 C        4.1213050000    -3.0203670000    -0.3445080000 
 H        0.4609750000     0.7291350000    -0.5593470000 
 H        0.4877590000     0.3226760000     1.0299380000 
 H        2.6296120000     0.0744470000    -0.9381120000 
 H        2.5577230000     1.5489940000     1.7499490000 
 H        3.7293170000     1.8247010000     0.4252030000 
 H        2.3584590000    -1.3607850000     1.7314550000 
 H        4.5664300000    -3.8384660000    -0.8597920000 
*
