! RI PBE def2-SVP def2-SVP/J NBO PAL2
% maxcore 2000
% output
    # printlevel mini
    print[ P_Basis ] 0
    print[ P_SCFInfo ] 1
    print[ P_SCFIterInfo ] 1
    print[ P_OrbEn ] 0
    print[ P_Cartesian ] 0
end
*xyz 0 1
 N        1.0985180000    -0.1462410000    -0.3736310000 
 C        2.5131670000    -0.0965440000    -0.1389560000 
 C        3.3229780000    -0.8728230000    -1.1396040000 
 O        2.6400970000    -1.5639030000    -2.1220250000 
 C        3.3500500000     0.6286050000    -1.1598740000 
 C        4.5652050000     1.3797050000    -0.7078890000 
 O        4.2709210000     2.5970420000    -0.0470720000 
 H        0.6644830000     0.7597480000    -0.2556970000 
 H        0.6448780000    -0.7955730000     0.2563210000 
 H        2.8675480000    -0.0493210000     0.8886260000 
 H        4.2101070000    -1.3974120000    -0.8011910000 
 H        1.7123990000    -1.2972260000    -2.0119010000 
 H        2.7934790000     1.0675690000    -1.9850450000 
 H        5.2353050000     1.5511920000    -1.5611850000 
 H        5.1205600000     0.7816240000     0.0196870000 
 H        3.8290160000     3.1777480000    -0.6713640000 
*
