! RI PBE def2-SVP def2-SVP/J NBO PAL2
% maxcore 2000
% output
    # printlevel mini
    print[ P_Basis ] 0
    print[ P_SCFInfo ] 1
    print[ P_SCFIterInfo ] 1
    print[ P_OrbEn ] 0
    print[ P_Cartesian ] 0
end
*xyz 0 1
 N        0.9711110000     0.1374840000     0.1851840000 
 C        2.3693740000    -0.1322740000    -0.0986110000 
 C        2.7553590000    -1.5791830000    -0.4662140000 
 O        2.8418910000    -1.6439360000    -1.8825520000 
 C        3.2360550000    -0.3809110000    -2.3419300000 
 C        2.1151270000     0.5662520000    -2.5998400000 
 C        2.8874820000     0.6345300000    -1.3063200000 
 H        0.6600450000    -0.4026530000     0.9833670000 
 H        0.3880070000    -0.1275340000    -0.5990720000 
 H        2.9363280000     0.1787830000     0.7837270000 
 H        2.0140190000    -2.3110030000    -0.1360030000 
 H        3.7279730000    -1.8395540000    -0.0237830000 
 H        4.1518750000    -0.3660320000    -2.9231120000 
 H        1.1169030000     0.1457060000    -2.6118460000 
 H        2.2715990000     1.3782040000    -3.3001530000 
 H        3.5053520000     1.5065420000    -1.1380320000 
*
