! RI PBE def2-SVP def2-SVP/J NBO PAL2
% maxcore 2000
% output
    # printlevel mini
    print[ P_Basis ] 0
    print[ P_SCFInfo ] 1
    print[ P_SCFIterInfo ] 1
    print[ P_OrbEn ] 0
    print[ P_Cartesian ] 0
end
*xyz 0 1
 N        1.0115300000     0.0057020000     0.0021970000 
 C        2.4462280000     0.0494720000     0.1355420000 
 C        3.0762250000     1.1208020000     1.0326120000 
 O        4.3735490000     0.6438370000     1.3077780000 
 C        4.2819020000    -0.7632130000     1.4772390000 
 C        3.0316450000    -1.1929580000     0.7575820000 
 C        2.4913950000    -2.4007860000     0.7353210000 
 H        0.6576040000     0.8407980000    -0.4456570000 
 H        0.5682800000    -0.0799020000     0.9093520000 
 H        2.8745310000     0.1667560000    -0.8687980000 
 H        2.4804750000     1.2270150000     1.9549250000 
 H        3.1666860000     2.1003860000     0.5590800000 
 H        4.2269710000    -1.0190260000     2.5446640000 
 H        5.1895640000    -1.2137590000     1.0665300000 
 H        2.9522890000    -3.2418480000     1.2422000000 
 H        1.5661070000    -2.5764860000     0.1987430000 
*
