! RI PBE def2-SVP def2-SVP/J NBO PAL2
% maxcore 2000
% output
    # printlevel mini
    print[ P_Basis ] 0
    print[ P_SCFInfo ] 1
    print[ P_SCFIterInfo ] 1
    print[ P_OrbEn ] 0
    print[ P_Cartesian ] 0
end
*xyz 0 1
 N        0.8351940000    -0.0411740000    -0.1859270000 
 C        2.2263070000     0.0207550000    -0.0821340000 
 C        3.0741060000     1.0805130000    -0.0926200000 
 O        4.3615200000     0.6587480000    -0.0427610000 
 C        4.3347740000    -0.6960070000    -0.0011990000 
 C        3.0548650000    -1.1468180000    -0.0250840000 
 N        2.5368560000    -2.4402660000     0.0666800000 
 H        0.3921800000     0.8636160000    -0.1294690000 
 H        0.4344670000    -0.6598520000     0.5074950000 
 H        2.9177400000     2.1453170000    -0.1401320000 
 H        5.2880350000    -1.1950540000     0.0513450000 
 H        3.2454180000    -3.1565460000     0.0122400000 
 H        1.8266190000    -2.6105440000    -0.6338440000 
*
