! RI PBE def2-SVP def2-SVP/J NBO PAL2
% maxcore 2000
% output
    # printlevel mini
    print[ P_Basis ] 0
    print[ P_SCFInfo ] 1
    print[ P_SCFIterInfo ] 1
    print[ P_OrbEn ] 0
    print[ P_Cartesian ] 0
end
*xyz 0 1
 N        1.0066860000    -0.0465980000    -0.2779570000 
 C        2.4124880000     0.0348910000     0.0483350000 
 C        2.8640990000     1.0567850000     1.0835720000 
 O        4.1126830000     0.5960160000     1.5652650000 
 C        4.2476820000    -0.7939320000     1.2939950000 
 C        2.9360690000    -1.2580900000     0.6800590000 
 N        3.0868990000    -2.4159180000    -0.1672310000 
 H        0.6976500000     0.7636470000    -0.7993330000 
 H        0.4461650000    -0.0939020000     0.5658720000 
 H        2.9649850000     0.2006830000    -0.8849530000 
 H        2.1270500000     1.1088930000     1.9015510000 
 H        2.9954570000     2.0656000000     0.6821300000 
 H        4.4955750000    -1.3255720000     2.2163900000 
 H        5.0727050000    -0.9465450000     0.5844140000 
 H        2.2384960000    -1.5282840000     1.4849080000 
 H        3.7386440000    -2.2150900000    -0.9183620000 
 H        2.1960860000    -2.6304950000    -0.6013460000 
*
