! RI PBE def2-SVP def2-SVP/J NBO PAL2
% maxcore 2000
% output
    # printlevel mini
    print[ P_Basis ] 0
    print[ P_SCFInfo ] 1
    print[ P_SCFIterInfo ] 1
    print[ P_OrbEn ] 0
    print[ P_Cartesian ] 0
end
*xyz 0 1
 N        0.9560240000     0.0253480000    -0.0305680000 
 C        2.3877720000     0.0344910000     0.0534280000 
 C        2.8320020000     0.1452360000     1.4993120000 
 O        4.2363440000     0.0691030000     1.6933170000 
 C        3.2366310000    -0.7484430000    -0.9317210000 
 C        3.1764690000     0.7519790000    -0.9925170000 
 O        4.2672230000     1.5451380000    -0.6810540000 
 H        0.5816300000    -0.9119500000    -0.0978120000 
 H        0.6118890000     0.5669720000    -0.8098390000 
 H        2.3135940000    -0.6176300000     2.0923810000 
 H        2.5219420000     1.1195840000     1.8836050000 
 H        4.5086230000    -0.8478210000     1.6087440000 
 H        2.7230700000    -1.3237220000    -1.6934590000 
 H        4.1721350000    -1.1794930000    -0.5911560000 
 H        2.6163230000     1.1848140000    -1.8156960000 
 H        4.6386390000     1.2133120000     0.1490330000 
*
