! RI PBE def2-SVP def2-SVP/J NBO PAL2
% maxcore 2000
% output
    # printlevel mini
    print[ P_Basis ] 0
    print[ P_SCFInfo ] 1
    print[ P_SCFIterInfo ] 1
    print[ P_OrbEn ] 0
    print[ P_Cartesian ] 0
end
*xyz 0 1
 N        1.0231480000     0.0273100000     0.0284010000 
 C        2.4657920000     0.0647370000    -0.0270760000 
 C        2.8428150000     0.0324540000    -1.5024960000 
 O        4.2280730000     0.0215890000    -1.7589590000 
 C        3.2487130000     1.1344030000     0.7929400000 
 C        4.1622670000     0.0220590000     1.3408680000 
 C        3.1690300000    -1.0278980000     0.8079550000 
 H        0.6167830000     0.8298640000    -0.4396150000 
 H        0.6982800000     0.0401220000     0.9870400000 
 H        2.3579730000     0.8809040000    -2.0112990000 
 H        2.4396760000    -0.8845460000    -1.9375360000 
 H        4.5905540000     0.8790680000    -1.5234080000 
 H        2.6126540000     1.5726330000     1.5658630000 
 H        3.7184560000     1.9575350000     0.2435700000 
 H        4.3418740000     0.0264280000     2.4165420000 
 H        5.1222290000    -0.0274830000     0.8276910000 
 H        2.5064100000    -1.4161000000     1.5852480000 
 H        3.5841030000    -1.8682600000     0.2497800000 
*
