! RI PBE def2-SVP def2-SVP/J NBO PAL2
% maxcore 2000
% output
    # printlevel mini
    print[ P_Basis ] 0
    print[ P_SCFInfo ] 1
    print[ P_SCFIterInfo ] 1
    print[ P_OrbEn ] 0
    print[ P_Cartesian ] 0
end
*xyz 0 1
 N        1.0656720000     0.0499820000     0.6989160000 
 C        2.3900300000    -0.0608520000     0.1128980000 
 C        2.6165140000     1.1293650000    -0.8047640000 
 O        3.9127490000     1.1234710000    -1.3805080000 
 C        4.2954110000    -0.0779210000    -1.8689450000 
 C        3.6826070000    -1.2348110000    -1.6322640000 
 C        2.5091320000    -1.3344280000    -0.7092290000 
 H        1.0331110000     0.7940950000     1.3853940000 
 H        0.8187380000    -0.8066450000     1.1793050000 
 H        3.2008540000    -0.0603830000     0.8589720000 
 H        2.5323860000     2.0727020000    -0.2613040000 
 H        1.8606810000     1.1150650000    -1.5997640000 
 H        5.1818190000     0.0088160000    -2.4865960000 
 H        4.0783820000    -2.1276800000    -2.0997250000 
 H        2.6239790000    -2.1987990000    -0.0449230000 
 H        1.5738540000    -1.4894750000    -1.2618830000 
*
