! RI PBE def2-SVP def2-SVP/J NBO PAL2
% maxcore 2000
% output
    # printlevel mini
    print[ P_Basis ] 0
    print[ P_SCFInfo ] 1
    print[ P_SCFIterInfo ] 1
    print[ P_OrbEn ] 0
    print[ P_Cartesian ] 0
end
*xyz 0 1
 N        1.0296800000     0.0500440000    -0.2559840000 
 C        2.4467410000     0.0403540000     0.0192790000 
 C        2.9978030000     1.1295190000     0.9419270000 
 O        4.2107410000     0.6106920000     1.4646890000 
 C        4.1940300000    -0.7546430000     1.3982400000 
 C        5.2066200000    -1.4890620000     1.8407740000 
 C        2.9122800000    -1.2054920000     0.7647460000 
 H        0.7625800000     0.8695040000    -0.7864170000 
 H        0.4936320000     0.0538980000     0.6044640000 
 H        2.9743700000     0.0963660000    -0.9386660000 
 H        2.2891110000     1.3248620000     1.7597290000 
 H        3.2188710000     2.0725310000     0.4378150000 
 H        6.0764720000    -1.0295800000     2.2909400000 
 H        5.1698580000    -2.5657320000     1.7555080000 
 H        2.1771330000    -1.4557460000     1.5401020000 
 H        3.0346880000    -2.0801950000     0.1280230000 
*
