! RI PBE def2-SVP def2-SVP/J NBO PAL2
% maxcore 2000
% output
    # printlevel mini
    print[ P_Basis ] 0
    print[ P_SCFInfo ] 1
    print[ P_SCFIterInfo ] 1
    print[ P_OrbEn ] 0
    print[ P_Cartesian ] 0
end
*xyz 0 1
 N        1.1869680000     0.1143320000     0.4462080000 
 C        2.3533450000     0.0425930000    -0.0615630000 
 C        3.1090090000    -1.2462900000    -0.3065830000 
 O        4.0462840000    -1.1807870000    -1.3533610000 
 C        4.9165680000    -0.0879200000    -1.1804380000 
 C        4.1479020000     1.2082230000    -1.2762510000 
 N        3.0546120000     1.1834000000    -0.3307450000 
 H        0.8171710000    -0.8133470000     0.6323470000 
 H        2.3989210000    -2.0330070000    -0.5623580000 
 H        3.6099010000    -1.5257910000     0.6345400000 
 H        5.6671350000    -0.1485330000    -1.9698040000 
 H        5.4234860000    -0.1568980000    -0.2059040000 
 H        3.7911630000     1.3378880000    -2.3076630000 
 H        4.8095630000     2.0468260000    -1.0410740000 
 H        2.4978530000     2.0199130000    -0.2379320000 
*
