! RI PBE def2-SVP def2-SVP/J NBO PAL2
% maxcore 2000
% output
    # printlevel mini
    print[ P_Basis ] 0
    print[ P_SCFInfo ] 1
    print[ P_SCFIterInfo ] 1
    print[ P_OrbEn ] 0
    print[ P_Cartesian ] 0
end
*xyz 0 1
 N        1.0783800000    -0.0498440000    -0.1049890000 
 C        2.4439240000     0.1059580000    -0.0162740000 
 C        3.2567790000     1.1961780000    -0.0404630000 
 C        4.5936360000     0.6793780000    -0.0015020000 
 N        5.7451880000     1.4571680000    -0.0856850000 
 C        4.4861470000    -0.6703920000     0.0507080000 
 O        3.1512050000    -1.0266790000     0.0330910000 
 H        0.5597090000     0.7622810000     0.1874490000 
 H        0.7438700000    -0.8909910000     0.3409150000 
 H        2.9571920000     2.2302400000    -0.1027590000 
 H        5.6743070000     2.3235540000     0.4262970000 
 H        6.5830100000     0.9638060000     0.1821570000 
 H        5.1928430000    -1.4801480000     0.0866550000 
*
