! RI PBE def2-SVP def2-SVP/J NBO PAL2
% maxcore 2000
% output
    # printlevel mini
    print[ P_Basis ] 0
    print[ P_SCFInfo ] 1
    print[ P_SCFIterInfo ] 1
    print[ P_OrbEn ] 0
    print[ P_Cartesian ] 0
end
*xyz 0 1
 N        0.9067350000    -0.1076610000     0.1468480000 
 C        2.3351720000     0.0003370000     0.0928650000 
 C        2.7726820000    -0.0109560000    -1.3666560000 
 O        4.1585850000     0.1090310000    -1.5561060000 
 C        3.1083990000     1.0683500000     0.9179460000 
 N        4.1111120000     0.0299800000     1.2061980000 
 C        3.1213110000    -1.0262810000     0.9330250000 
 H        0.4588700000     0.6043070000    -0.4169410000 
 H        0.5612740000    -0.0205730000     1.0938030000 
 H        2.2748350000     0.8239520000    -1.8822940000 
 H        2.4042110000    -0.9416180000    -1.8179770000 
 H        4.5846430000     0.0507430000    -0.6829410000 
 H        2.5260360000     1.3819490000     1.7949800000 
 H        3.4928470000     1.9493740000     0.3960120000 
 H        4.5308210000     0.0379880000     2.1259690000 
 H        2.5459020000    -1.3386930000     1.8147210000 
 H        3.5109560000    -1.9111300000     0.4221380000 
*
