! RI PBE def2-SVP def2-SVP/J NBO PAL2
% maxcore 2000
% output
    # printlevel mini
    print[ P_Basis ] 0
    print[ P_SCFInfo ] 1
    print[ P_SCFIterInfo ] 1
    print[ P_OrbEn ] 0
    print[ P_Cartesian ] 0
end
*xyz 0 1
 N        0.9088070000     0.1096350000    -0.0419660000 
 C        2.2770770000     0.0776750000    -0.0357120000 
 C        3.1515950000     1.1175050000    -0.0321480000 
 O        4.4494820000     0.6228890000    -0.0261960000 
 C        4.3495620000    -0.7043050000    -0.0261750000 
 O        5.4894480000    -1.3991860000    -0.0208570000 
 C        3.0633200000    -1.1249090000    -0.0317600000 
 H        0.4104220000     0.9762700000    -0.0436290000 
 H        0.3827460000    -0.7396470000    -0.0429880000 
 H        3.0525660000     2.1875270000    -0.0329810000 
 H        6.2234850000    -0.7756200000    -0.0177100000 
 H        2.7182910000    -2.1454260000    -0.0329570000 
*
