! RI PBE def2-SVP def2-SVP/J NBO PAL2
% maxcore 2000
% output
    # printlevel mini
    print[ P_Basis ] 0
    print[ P_SCFInfo ] 1
    print[ P_SCFIterInfo ] 1
    print[ P_OrbEn ] 0
    print[ P_Cartesian ] 0
end
*xyz 0 1
 N        0.9736520000     0.1170740000     0.4631550000 
 C        2.3520900000     0.0329210000     0.0184730000 
 C        2.6718450000     1.2077630000    -0.8821770000 
 O        4.0191670000     1.1794460000    -1.3218490000 
 N        4.4450250000     0.0080930000    -1.9017670000 
 C        3.7710330000    -1.0488860000    -1.6922710000 
 C        2.5690500000    -1.2114030000    -0.8189910000 
 H        0.8470480000     0.8964050000     1.0981040000 
 H        0.7095920000    -0.7205000000     0.9681230000 
 H        3.0837690000     0.0364310000     0.8412600000 
 H        2.5652470000     2.1637070000    -0.3651050000 
 H        1.9948250000     1.1961900000    -1.7466160000 
 H        4.1769830000    -1.9223130000    -2.1958470000 
 H        2.7035720000    -2.1018440000    -0.1955860000 
 H        1.6797030000    -1.3920920000    -1.4349950000 
*
