! RI PBE def2-SVP def2-SVP/J NBO PAL2
% maxcore 2000
% output
    # printlevel mini
    print[ P_Basis ] 0
    print[ P_SCFInfo ] 1
    print[ P_SCFIterInfo ] 1
    print[ P_OrbEn ] 0
    print[ P_Cartesian ] 0
end
*xyz 0 1
 N        1.3944890000     0.0672380000     0.7411540000 
 C        2.2899250000    -0.0935910000    -0.1299620000 
 N        2.8463930000    -1.2501340000    -0.6687540000 
 C        3.9977590000    -0.9289880000    -1.4474080000 
 C        5.0890030000    -0.1274480000    -0.7749410000 
 C        3.9667430000     0.5572170000    -1.4871160000 
 O        2.8752000000     0.9831310000    -0.7180610000 
 H        1.0227740000    -0.8233260000     1.0531600000 
 H        2.8694870000    -2.0542940000    -0.0632930000 
 H        4.1993660000    -1.5427150000    -2.3160310000 
 H        6.0575490000    -0.1048920000    -1.2595470000 
 H        5.1039430000    -0.0886760000     0.3080720000 
 H        4.1215690000     1.1543980000    -2.3743620000 
*
