! RI PBE def2-SVP def2-SVP/J NBO PAL2
% maxcore 2000
% output
    # printlevel mini
    print[ P_Basis ] 0
    print[ P_SCFInfo ] 1
    print[ P_SCFIterInfo ] 1
    print[ P_OrbEn ] 0
    print[ P_Cartesian ] 0
end
*xyz 0 1
 N        1.1921180000     0.0249880000     0.4727430000 
 C        2.3853790000     0.1135000000     0.0500020000 
 N        3.1458040000     1.1833040000    -0.3175850000 
 C        4.4970950000     0.9018370000    -0.7615930000 
 C        4.6165920000    -0.6175440000    -0.6527780000 
 C        3.2752360000    -1.1027700000    -0.1405330000 
 O        2.9671680000    -2.2363460000     0.0756120000 
 H        0.7411870000     0.9367030000     0.5406410000 
 H        2.7887470000     2.1218370000    -0.2858270000 
 H        5.2299400000     1.4121810000    -0.1290720000 
 H        4.6504720000     1.2475050000    -1.7885650000 
 H        5.3962650000    -0.9346700000     0.0420740000 
 H        4.8252960000    -1.0983140000    -1.6101190000 
*
