! RI PBE def2-SVP def2-SVP/J NBO PAL2
% maxcore 2000
% output
    # printlevel mini
    print[ P_Basis ] 0
    print[ P_SCFInfo ] 1
    print[ P_SCFIterInfo ] 1
    print[ P_OrbEn ] 0
    print[ P_Cartesian ] 0
end
*xyz 0 1
 N        1.2259820000     0.1596010000     0.5621740000 
 C        2.3591230000    -0.0069190000     0.0192250000 
 N        2.8545990000    -1.1513910000    -0.6171100000 
 O        4.2754070000    -1.1159940000    -0.6452970000 
 C        4.6146630000     0.2392800000    -0.5370540000 
 C        3.9899590000     1.1910360000    -1.4870040000 
 C        3.4141310000     1.0177100000    -0.0934270000 
 H        0.6803330000    -0.7009620000     0.5765560000 
 H        2.5987960000    -2.0359900000    -0.1988290000 
 H        5.6164300000     0.3727110000    -0.1520950000 
 H        3.4256760000     0.8003630000    -2.3243460000 
 H        4.5196720000     2.1174110000    -1.6680850000 
 H        3.4193390000     1.8261340000     0.6223020000 
*
