! RI PBE def2-SVP def2-SVP/J NBO PAL2
% maxcore 2000
% output
    # printlevel mini
    print[ P_Basis ] 0
    print[ P_SCFInfo ] 1
    print[ P_SCFIterInfo ] 1
    print[ P_OrbEn ] 0
    print[ P_Cartesian ] 0
end
*xyz 0 1
 N        1.4789020000     0.2702210000     0.5570570000 
 C        2.5265630000    -0.0331870000    -0.0597190000 
 O        2.6805210000    -1.1347640000    -0.8548180000 
 C        4.0353000000    -1.2649560000    -1.2658690000 
 C        4.6695950000     0.0446030000    -0.8751350000 
 C        4.0288410000     1.2741370000    -1.3593570000 
 N        3.7096960000     0.7440150000    -0.0221000000 
 H        0.7588530000    -0.4295100000     0.3962140000 
 H        4.0569420000    -1.4712850000    -2.3384130000 
 H        4.4979920000    -2.1004600000    -0.7321030000 
 H        5.7017340000     0.0480500000    -0.5456120000 
 H        3.2632560000     1.1863120000    -2.1244780000 
 H        4.5718150000     2.2110040000    -1.3440870000 
*
