! RI PBE def2-SVP def2-SVP/J NBO PAL2
% maxcore 2000
% output
    # printlevel mini
    print[ P_Basis ] 0
    print[ P_SCFInfo ] 1
    print[ P_SCFIterInfo ] 1
    print[ P_OrbEn ] 0
    print[ P_Cartesian ] 0
end
*xyz 0 1
 N        2.7699470000     1.1028340000     0.0987100000 
 C        2.1917680000    -0.1729920000    -0.2921540000 
 C        2.6354440000    -1.2581160000     0.6448420000 
 C        2.6250660000    -2.6879090000     0.2045000000 
 C        3.9322060000    -1.9700870000     0.4029380000 
 C        4.8145150000    -2.3538660000     1.5515960000 
 O        5.6245670000    -3.4768120000     1.2697480000 
 H        2.4580580000     1.8443120000    -0.5154800000 
 H        3.7800410000     1.0633330000     0.0319690000 
 H        2.4362600000    -0.4804000000    -1.3227880000 
 H        1.1017300000    -0.0769730000    -0.2448790000 
 H        2.3860210000    -1.0726550000     1.6856130000 
 H        2.3115820000    -2.9069170000    -0.8094820000 
 H        2.3392090000    -3.4375310000     0.9344940000 
 H        4.4654030000    -1.7010500000    -0.5054660000 
 H        4.1928810000    -2.5293160000     2.4426060000 
 H        5.5071370000    -1.5436190000     1.7944690000 
 H        5.0501850000    -4.1709460000     0.9342540000 
*
