! RI PBE def2-SVP def2-SVP/J NBO PAL2
% maxcore 2000
% output
    # printlevel mini
    print[ P_Basis ] 0
    print[ P_SCFInfo ] 1
    print[ P_SCFIterInfo ] 1
    print[ P_OrbEn ] 0
    print[ P_Cartesian ] 0
end
*xyz 0 1
 N        3.4352100000     0.4466170000    -0.7634400000 
 C        2.4694000000    -0.4600970000    -0.1712690000 
 C        2.9382420000    -0.9079400000     1.1657580000 
 C        3.8801250000    -0.4450290000     2.0235020000 
 C        3.8453430000    -1.3107510000     3.1591210000 
 C        2.8864430000    -2.2279040000     2.9020290000 
 O        2.3279850000    -1.9984640000     1.6891970000 
 H        3.0719130000     0.8420650000    -1.6200380000 
 H        4.2897290000    -0.0464580000    -0.9912290000 
 H        2.2453800000    -1.3546900000    -0.7731730000 
 H        1.5209000000     0.0795130000    -0.0618000000 
 H        4.5083270000     0.4152770000     1.8609380000 
 H        4.4546730000    -1.2541200000     4.0471200000 
 H        2.4997090000    -3.0720090000     3.4482940000 
*
