! RI PBE def2-SVP def2-SVP/J NBO PAL2
% maxcore 2000
% output
    # printlevel mini
    print[ P_Basis ] 0
    print[ P_SCFInfo ] 1
    print[ P_SCFIterInfo ] 1
    print[ P_OrbEn ] 0
    print[ P_Cartesian ] 0
end
*xyz 0 1
 N        0.9285690000    -0.0660400000     0.0441620000 
 C        2.0786990000     0.0071650000     0.0482350000 
 C        3.4832500000     0.1310070000     0.0531370000 
 C        4.2943470000     1.2244920000     0.0535030000 
 C        5.6214350000     0.7242190000     0.0596240000 
 C        5.5117980000    -0.6281700000     0.0624780000 
 O        4.2218310000    -1.0070300000     0.0586160000 
 H        3.9700450000     2.2525340000     0.0498230000 
 H        6.5363680000     1.2940260000     0.0616380000 
 H        6.2352670000    -1.4268050000     0.0670830000 
*
