! RI PBE def2-SVP def2-SVP/J NBO PAL2
% maxcore 2000
% output
    # printlevel mini
    print[ P_Basis ] 0
    print[ P_SCFInfo ] 1
    print[ P_SCFIterInfo ] 1
    print[ P_OrbEn ] 0
    print[ P_Cartesian ] 0
end
*xyz 0 1
 N        3.0587840000    -0.7678130000    -0.8526880000 
 C        2.2844690000    -0.0749330000     0.1600660000 
 C        2.8941500000    -0.2969520000     1.5254810000 
 C        2.1815150000     0.4297300000     2.6600010000 
 C        2.3450660000    -0.5355130000     3.8266910000 
 C        2.2352600000    -1.8747660000     3.1198700000 
 O        2.8370280000    -1.6899400000     1.8502650000 
 H        2.6294740000    -0.6720200000    -1.7637420000 
 H        3.0823110000    -1.7566310000    -0.6322470000 
 H        1.2267120000    -0.3830220000     0.2099620000 
 H        2.3012190000     0.9994090000    -0.0555180000 
 H        3.9536000000    -0.0118510000     1.4808860000 
 H        1.1208760000     0.5557540000     2.4175330000 
 H        2.6040150000     1.4175120000     2.8485510000 
 H        1.5962950000    -0.4048620000     4.6096420000 
 H        3.3350090000    -0.4257170000     4.2779840000 
 H        1.1824660000    -2.1675150000     3.0001810000 
 H        2.7565610000    -2.6853680000     3.6352730000 
*
