! RI PBE def2-SVP def2-SVP/J NBO PAL2
% maxcore 2000
% output
    # printlevel mini
    print[ P_Basis ] 0
    print[ P_SCFInfo ] 1
    print[ P_SCFIterInfo ] 1
    print[ P_OrbEn ] 0
    print[ P_Cartesian ] 0
end
*xyz 0 1
 N        1.3065090000    -0.3670050000     0.8508050000 
 C        2.3569450000    -0.1468280000     0.4384510000 
 C        3.7040890000     0.1468270000    -0.0808010000 
 C        4.3606930000     1.3208340000     0.6884800000 
 C        5.5503710000     0.6577290000     1.3954620000 
 C        5.2045080000    -0.8198310000     1.3217310000 
 O        4.5515500000    -0.9667520000     0.0699410000 
 H        3.6078930000     0.3471260000    -1.1505250000 
 H        3.6578690000     1.7591560000     1.3967470000 
 H        4.6732910000     2.1051460000     0.0001900000 
 H        5.6780620000     1.0104540000     2.4193850000 
 H        6.4764600000     0.8499720000     0.8508380000 
 H        4.5311830000    -1.1152590000     2.1378950000 
 H        6.0677860000    -1.4848600000     1.3199920000 
*
