! RI PBE def2-SVP def2-SVP/J NBO PAL2
% maxcore 2000
% output
    # printlevel mini
    print[ P_Basis ] 0
    print[ P_SCFInfo ] 1
    print[ P_SCFIterInfo ] 1
    print[ P_OrbEn ] 0
    print[ P_Cartesian ] 0
end
*xyz 0 1
 N        2.0346570000     1.4185400000    -0.2036510000 
 C        2.4958490000     0.0576450000    -0.0119130000 
 C        3.2087370000    -0.0787130000     1.3133100000 
 C        3.7309480000    -1.5017610000     1.5854100000 
 C        5.2172270000    -1.2928950000     1.6030130000 
 C        5.4644310000    -0.0011560000     1.4351080000 
 O        4.3723220000     0.7887950000     1.2966700000 
 H        1.5771980000     1.5215600000    -1.0999600000 
 H        2.8283820000     2.0479080000    -0.1955760000 
 H        3.1754860000    -0.3109390000    -0.7984780000 
 H        1.6289790000    -0.6117980000     0.0054270000 
 H        2.5609530000     0.2946590000     2.1101610000 
 H        3.4149170000    -2.1950070000     0.7970710000 
 H        3.3549890000    -1.9023330000     2.5317910000 
 H        5.9598570000    -2.0640060000     1.7374940000 
 H        6.4106590000     0.5216010000     1.3969440000 
*
