! RI PBE def2-SVP def2-SVP/J NBO PAL2
% maxcore 2000
% output
    # printlevel mini
    print[ P_Basis ] 0
    print[ P_SCFInfo ] 1
    print[ P_SCFIterInfo ] 1
    print[ P_OrbEn ] 0
    print[ P_Cartesian ] 0
end
*xyz 0 1
 N        3.3102780000     0.5725150000    -0.7255250000 
 C        2.2238920000    -0.2805000000    -0.2848130000 
 C        2.7298870000    -1.3237830000     0.6458950000 
 C        3.8749700000    -1.4560360000     1.3591610000 
 C        3.6883670000    -2.6828440000     2.0386650000 
 N        2.5423130000    -3.2329810000     1.7579700000 
 O        1.9334120000    -2.3737610000     0.8700940000 
 H        2.9510840000     1.3758250000    -1.2231610000 
 H        3.9248450000     0.0723890000    -1.3557340000 
 H        1.6671570000    -0.7823010000    -1.0901350000 
 H        1.4959760000     0.3388440000     0.2510650000 
 H        4.7060220000    -0.7735410000     1.3940220000 
 H        4.3529180000    -3.1862150000     2.7264860000 
*
