! RI PBE def2-SVP def2-SVP/J NBO PAL2
% maxcore 2000
% output
    # printlevel mini
    print[ P_Basis ] 0
    print[ P_SCFInfo ] 1
    print[ P_SCFIterInfo ] 1
    print[ P_OrbEn ] 0
    print[ P_Cartesian ] 0
end
*xyz 0 1
 N        0.9269670000     0.0082810000     0.2199460000 
 C        2.0715640000     0.0516160000     0.1291470000 
 C        3.5337150000     0.0720810000     0.0305060000 
 C        4.0889100000    -1.1629020000    -0.6873840000 
 C        4.4757060000    -0.5273410000    -1.9846690000 
 N        4.4023630000     0.7359190000    -1.9939820000 
 O        3.9515860000     1.1916820000    -0.7684030000 
 H        3.9453520000     0.2089340000     1.0320720000 
 H        3.3505050000    -1.9567610000    -0.8005940000 
 H        4.9622610000    -1.5799520000    -0.1788470000 
 H        4.8286700000    -1.0436560000    -2.8675910000 
*
