! RI PBE def2-SVP def2-SVP/J NBO PAL2
% maxcore 2000
% output
    # printlevel mini
    print[ P_Basis ] 0
    print[ P_SCFInfo ] 1
    print[ P_SCFIterInfo ] 1
    print[ P_OrbEn ] 0
    print[ P_Cartesian ] 0
end
*xyz 0 1
 N        3.4134050000     0.7776570000    -0.6483120000 
 C        2.4376440000    -0.1885040000    -0.1708770000 
 C        2.8645090000    -0.7870870000     1.1269180000 
 C        3.8164240000    -0.3202360000     1.9715390000 
 O        3.9279500000    -1.1195850000     3.0595510000 
 C        3.0291550000    -2.1141060000     2.9091670000 
 C        2.3505680000    -1.9696330000     1.7480530000 
 H        3.0744940000     1.2455050000    -1.4785810000 
 H        4.2765310000     0.3090450000    -0.8965170000 
 H        2.2288440000    -1.0034420000    -0.8821080000 
 H        1.4874870000     0.3393180000    -0.0291520000 
 H        4.4648300000     0.5381550000     1.9344080000 
 H        2.9916760000    -2.8448330000     3.7002520000 
 H        1.5779750000    -2.6230550000     1.3727580000 
*
