! RI PBE def2-SVP def2-SVP/J NBO PAL2
% maxcore 2000
% output
    # printlevel mini
    print[ P_Basis ] 0
    print[ P_SCFInfo ] 1
    print[ P_SCFIterInfo ] 1
    print[ P_OrbEn ] 0
    print[ P_Cartesian ] 0
end
*xyz 0 1
 N        0.8973350000     0.0375810000    -0.0946670000 
 C        2.0488030000     0.0080310000    -0.0919460000 
 C        3.4621420000    -0.0424060000    -0.0872530000 
 C        4.3079930000     1.0249450000    -0.0847620000 
 O        5.5787700000     0.6056170000    -0.0805260000 
 C        5.5623230000    -0.7496590000    -0.0801670000 
 C        4.2941040000    -1.2095470000    -0.0841440000 
 H        4.1394750000     2.0888560000    -0.0856310000 
 H        6.5241140000    -1.2339870000    -0.0769020000 
 H        3.9687400000    -2.2366210000    -0.0849010000 
*
