! RI PBE def2-SVP def2-SVP/J NBO PAL2
% maxcore 2000
% output
    # printlevel mini
    print[ P_Basis ] 0
    print[ P_SCFInfo ] 1
    print[ P_SCFIterInfo ] 1
    print[ P_OrbEn ] 0
    print[ P_Cartesian ] 0
end
*xyz 0 1
 N        0.9038140000    -0.1036190000     0.4742240000 
 C        2.0256520000    -0.0545140000     0.2250580000 
 C        3.4445660000    -0.0066190000    -0.0735980000 
 C        4.1855330000     1.1968560000     0.5615370000 
 C        5.3742750000     0.5367220000     1.2708180000 
 O        5.5233060000    -0.7356560000     0.6739210000 
 C        4.2217830000    -1.2181630000     0.4823160000 
 H        3.5556990000     0.0212550000    -1.1599930000 
 H        3.5485790000     1.7453370000     1.2548060000 
 H        4.5106960000     1.8874630000    -0.2159180000 
 H        5.1697040000     0.4261930000     2.3445060000 
 H        6.3118040000     1.0789510000     1.1486150000 
 H        3.7743610000    -1.5474220000     1.4308160000 
 H        4.2552170000    -2.0606840000    -0.2078080000 
*
