! RI PBE def2-SVP def2-SVP/J NBO PAL2
% maxcore 2000
% output
    # printlevel mini
    print[ P_Basis ] 0
    print[ P_SCFInfo ] 1
    print[ P_SCFIterInfo ] 1
    print[ P_OrbEn ] 0
    print[ P_Cartesian ] 0
end
*xyz 0 1
 N        1.4991610000     1.0288000000     0.6766950000 
 C        2.2775230000     0.0113600000    -0.0250280000 
 C        2.7060080000    -1.0815680000     0.8928450000 
 C        2.4852570000    -2.3842260000     0.7857960000 
 C        3.1382410000    -3.1139210000     1.9094210000 
 O        3.7658500000    -2.1078620000     2.6880990000 
 C        3.5340910000    -0.8349800000     2.1170050000 
 H        1.1767900000     1.7295960000     0.0209300000 
 H        2.0748920000     1.5130430000     1.3547970000 
 H        3.1757170000     0.4186370000    -0.5208770000 
 H        1.6501840000    -0.4143190000    -0.8118470000 
 H        1.9162420000    -2.8735120000     0.0050860000 
 H        3.8898560000    -3.8375690000     1.5624610000 
 H        2.4155890000    -3.6649760000     2.5281900000 
 H        4.4935100000    -0.3520510000     1.8736370000 
 H        3.0165790000    -0.1928330000     2.8445900000 
*
