! RI PBE def2-SVP def2-SVP/J NBO PAL2
% maxcore 2000
% output
    # printlevel mini
    print[ P_Basis ] 0
    print[ P_SCFInfo ] 1
    print[ P_SCFIterInfo ] 1
    print[ P_OrbEn ] 0
    print[ P_Cartesian ] 0
end
*xyz 0 1
 N        2.6514530000    -1.4123900000     0.1246910000 
 C        2.3972570000     0.0176090000     0.2098280000 
 C        2.7844010000     0.7069210000    -1.0745640000 
 C        2.6816760000     2.2442640000    -1.1358550000 
 C        4.0159660000     2.2840980000    -1.8898320000 
 O        3.7578380000     2.3780440000    -3.2736760000 
 C        4.2881740000     0.8442800000    -1.4078880000 
 H        2.3842490000    -1.8775110000     0.9829640000 
 H        3.6416150000    -1.5841240000    -0.0053590000 
 H        2.9227280000     0.5137680000     1.0448860000 
 H        1.3252530000     0.1620640000     0.3845760000 
 H        2.2507770000     0.2458330000    -1.9082170000 
 H        2.7678840000     2.6967110000    -0.1442980000 
 H        1.8328900000     2.6830960000    -1.6611440000 
 H        4.7372010000     3.0495480000    -1.5792450000 
 H        4.5733740000     2.1905880000    -3.7458730000 
 H        4.9040690000     0.8386640000    -0.5025500000 
 H        4.7208940000     0.1585180000    -2.1398240000 
*
