! RI PBE def2-SVP def2-SVP/J NBO PAL2
% maxcore 2000
% output
    # printlevel mini
    print[ P_Basis ] 0
    print[ P_SCFInfo ] 1
    print[ P_SCFIterInfo ] 1
    print[ P_OrbEn ] 0
    print[ P_Cartesian ] 0
end
*xyz 0 1
 N        1.2610280000    -0.7145660000     0.2006650000 
 C        2.1897980000     0.2975790000    -0.2787070000 
 C        2.9349050000    -0.2000310000    -1.4710450000 
 N        4.2292340000    -0.0523800000    -1.5485360000 
 O        4.6047950000    -0.5894230000    -2.7553730000 
 C        3.5204680000    -1.0598250000    -3.3754530000 
 C        2.4194870000    -0.8526280000    -2.6226030000 
 H        0.6791330000    -0.3377580000     0.9375260000 
 H        1.7665040000    -1.5013080000     0.5897110000 
 H        2.9272390000     0.6421920000     0.4578380000 
 H        1.6037390000     1.1726610000    -0.5787310000 
 H        3.6873380000    -1.5140300000    -4.3399010000 
 H        1.3979410000    -1.1227820000    -2.8273820000 
*
