! RI PBE def2-SVP def2-SVP/J NBO PAL2
% maxcore 2000
% output
    # printlevel mini
    print[ P_Basis ] 0
    print[ P_SCFInfo ] 1
    print[ P_SCFIterInfo ] 1
    print[ P_OrbEn ] 0
    print[ P_Cartesian ] 0
end
*xyz 0 1
 N        2.7696160000    -1.2765660000     0.2178760000 
 C        2.5033800000     0.1453550000     0.0776100000 
 C        2.8837730000     0.6186700000    -1.3054970000 
 C        2.9721960000     2.1447600000    -1.5253680000 
 C        4.4415270000     1.8964050000    -1.8885200000 
 O        5.3543990000     2.5588460000    -2.2925750000 
 N        4.3192110000     0.5645730000    -1.5992960000 
 H        2.3266200000    -1.6467250000     1.0484400000 
 H        3.7641420000    -1.4365660000     0.3245210000 
 H        3.0232330000     0.7726840000     0.8186870000 
 H        1.4295710000     0.3112210000     0.2091040000 
 H        2.2835660000     0.0963730000    -2.0563710000 
 H        2.8256010000     2.7554590000    -0.6336760000 
 H        2.3796890000     2.5409690000    -2.3491230000 
 H        4.9136670000    -0.2069580000    -1.8612030000 
*
