! RI PBE def2-SVP def2-SVP/J NBO PAL2
% maxcore 2000
% output
    # printlevel mini
    print[ P_Basis ] 0
    print[ P_SCFInfo ] 1
    print[ P_SCFIterInfo ] 1
    print[ P_OrbEn ] 0
    print[ P_Cartesian ] 0
end
*xyz 0 1
 N        3.2896010000    -0.2220200000    -0.9577990000 
 C        2.3186870000    -0.0981170000     0.1099760000 
 C        2.9117310000    -0.5861650000     1.4010040000 
 C        1.9733880000    -0.7777480000     2.5892370000 
 C        2.3155790000    -2.2446210000     2.4179120000 
 O        2.0420080000    -3.2762140000     2.9308700000 
 O        3.1509650000    -2.0348130000     1.3622670000 
 H        2.9209820000     0.1386870000    -1.8277150000 
 H        3.5180270000    -1.1976890000    -1.1074770000 
 H        1.3735810000    -0.6389960000    -0.0627230000 
 H        2.0665720000     0.9601260000     0.2390770000 
 H        3.8529980000    -0.0781400000     1.6167330000 
 H        0.9224920000    -0.5450180000     2.4145270000 
 H        2.2952800000    -0.3547720000     3.5398020000 
*
