! RI PBE def2-SVP def2-SVP/J NBO PAL2
% maxcore 2000
% output
    # printlevel mini
    print[ P_Basis ] 0
    print[ P_SCFInfo ] 1
    print[ P_SCFIterInfo ] 1
    print[ P_OrbEn ] 0
    print[ P_Cartesian ] 0
end
*xyz 0 1
 N        2.1196130000     1.2940070000    -0.6345270000 
 C        2.4050240000     0.0199660000     0.0074000000 
 C        3.0762340000    -0.9064280000    -0.9612300000 
 C        3.1023950000    -2.4130820000    -0.7647250000 
 N        2.4955740000    -3.1174790000     0.3262210000 
 C        2.2622380000    -1.8055120000    -1.8349390000 
 O        2.6217760000    -1.9100980000    -3.1741750000 
 H        1.5963100000     1.9020240000    -0.0172100000 
 H        1.5572470000     1.1470410000    -1.4642590000 
 H        1.5137780000    -0.4758820000     0.4250320000 
 H        3.0753010000     0.2109840000     0.8534870000 
 H        3.9602470000    -0.4967370000    -1.4399080000 
 H        4.0115910000    -2.8840450000    -1.1266260000 
 H        1.5147050000    -2.8916960000     0.4175700000 
 H        2.9430880000    -2.8957930000     1.2070160000 
 H        1.1856060000    -1.8033690000    -1.6476320000 
 H        2.5083840000    -2.8252810000    -3.4458930000 
*
