! RI PBE def2-SVP def2-SVP/J NBO PAL2
% maxcore 2000
% output
    # printlevel mini
    print[ P_Basis ] 0
    print[ P_SCFInfo ] 1
    print[ P_SCFIterInfo ] 1
    print[ P_OrbEn ] 0
    print[ P_Cartesian ] 0
end
*xyz 0 1
 N        3.2108650000     0.1646690000    -0.9841850000 
 C        2.3047670000     0.0286840000     0.1403920000 
 C        2.9729620000    -0.8011220000     1.2151540000 
 C        2.1203120000    -1.2549140000     2.4214490000 
 N        2.3667440000    -2.6281660000     1.9994340000 
 C        3.0803960000    -2.2992490000     0.8860720000 
 O        3.5532200000    -2.9505510000    -0.0063790000 
 H        2.7753340000     0.6753620000    -1.7408670000 
 H        3.4636400000    -0.7523890000    -1.3358680000 
 H        1.3363600000    -0.4374870000    -0.1102340000 
 H        2.0831840000     1.0251460000     0.5376500000 
 H        3.9365090000    -0.3656660000     1.4871970000 
 H        1.0696450000    -0.9559000000     2.3661130000 
 H        2.5252600000    -1.0070010000     3.4049150000 
 H        2.0135910000    -3.5133940000     2.3274660000 
*
