! RI PBE def2-SVP def2-SVP/J NBO PAL2
% maxcore 2000
% output
    # printlevel mini
    print[ P_Basis ] 0
    print[ P_SCFInfo ] 1
    print[ P_SCFIterInfo ] 1
    print[ P_OrbEn ] 0
    print[ P_Cartesian ] 0
end
*xyz 0 1
 N        1.0289240000    -0.0905810000     0.0831110000 
 C        2.1795490000    -0.0346110000     0.0859930000 
 C        3.5830910000     0.0725210000     0.0893850000 
 C        4.4342740000     1.1300480000     0.0879610000 
 N        5.7226060000     0.6609920000     0.0930790000 
 C        5.5968820000    -0.6218450000     0.0972160000 
 O        4.3331220000    -1.0654510000     0.0953800000 
 H        4.1955650000     2.1813970000     0.0836390000 
 H        6.3750980000    -1.3693710000     0.1019250000 
*
