! RI PBE def2-SVP def2-SVP/J NBO PAL2
% maxcore 2000
% output
    # printlevel mini
    print[ P_Basis ] 0
    print[ P_SCFInfo ] 1
    print[ P_SCFIterInfo ] 1
    print[ P_OrbEn ] 0
    print[ P_Cartesian ] 0
end
*xyz 0 1
 N        1.0065860000    -0.1675610000     0.0960670000 
 C        2.4264650000    -0.2020870000    -0.2127750000 
 C        2.8459550000     1.0481660000    -0.9079450000 
 C        2.2174990000     2.2475680000    -0.9464600000 
 O        2.9199750000     3.1229610000    -1.6710000000 
 N        4.0541470000     2.5130340000    -2.1377680000 
 C        4.0057330000     1.2914070000    -1.6887820000 
 H        0.7484260000    -0.9560250000     0.6746430000 
 H        0.4591250000    -0.2248740000    -0.7543350000 
 H        2.7346440000    -1.0661140000    -0.8216330000 
 H        2.9710690000    -0.2889090000     0.7339630000 
 H        1.2949350000     2.6030410000    -0.5170120000 
 H        4.8083420000     0.6109940000    -1.9381540000 
*
