! RI PBE def2-SVP def2-SVP/J NBO PAL2
% maxcore 2000
% output
    # printlevel mini
    print[ P_Basis ] 0
    print[ P_SCFInfo ] 1
    print[ P_SCFIterInfo ] 1
    print[ P_OrbEn ] 0
    print[ P_Cartesian ] 0
end
*xyz 0 1
 N        2.9964100000    -0.7138320000     0.8600850000 
 C        2.3870860000     0.1112150000    -0.1775570000 
 C        3.2401940000     1.3181810000    -0.4378180000 
 C        2.6675420000     2.5873750000    -0.9895440000 
 O        1.3127890000     2.6012260000    -1.3072060000 
 C        3.1059340000     2.5406990000     0.4338150000 
 O        4.2236640000     3.2917870000     0.7814120000 
 H        2.4628120000    -1.5642430000     0.9920550000 
 H        2.9802730000    -0.2209230000     1.7454670000 
 H        1.3626730000     0.4357170000     0.0474860000 
 H        2.3285420000    -0.4879370000    -1.0916120000 
 H        4.2521110000     1.0971100000    -0.7633270000 
 H        3.3150420000     3.1489720000    -1.6598570000 
 H        0.9751280000     3.4852830000    -1.1390930000 
 H        2.3031710000     2.5169030000     1.1714750000 
 H        4.7965400000     2.7472680000     1.3281290000 
*
