! RI PBE def2-SVP def2-SVP/J NBO PAL2
% maxcore 2000
% output
    # printlevel mini
    print[ P_Basis ] 0
    print[ P_SCFInfo ] 1
    print[ P_SCFIterInfo ] 1
    print[ P_OrbEn ] 0
    print[ P_Cartesian ] 0
end
*xyz 0 1
 N        3.1669660000    -1.0972780000    -0.4466950000 
 C        2.3645920000     0.0250370000    -0.0030920000 
 C        2.9378390000     1.3062180000    -0.5755070000 
 C        2.4034810000     2.6463870000    -0.0745580000 
 O        3.7094750000     2.9780280000     0.4776270000 
 C        4.2254280000     1.7831180000     0.0763620000 
 O        5.3176560000     1.3625240000     0.2702130000 
 H        2.8064340000    -1.9679470000    -0.0795800000 
 H        4.1214640000    -0.9984300000    -0.1200520000 
 H        2.2909790000     0.1300850000     1.0921470000 
 H        1.3443160000    -0.1025400000    -0.3789280000 
 H        3.0313360000     1.2250370000    -1.6601780000 
 H        1.6576320000     2.5931110000     0.7199030000 
 H        2.1100920000     3.3703520000    -0.8339720000 
*
