! RI PBE def2-SVP def2-SVP/J NBO PAL2
% maxcore 2000
% output
    # printlevel mini
    print[ P_Basis ] 0
    print[ P_SCFInfo ] 1
    print[ P_SCFIterInfo ] 1
    print[ P_OrbEn ] 0
    print[ P_Cartesian ] 0
end
*xyz 0 1
 N        1.0614980000    -0.0736820000     0.2242210000 
 C        2.2071360000    -0.0831100000     0.0830210000 
 C        3.6035020000    -0.0526890000    -0.0872520000 
 C        4.3985180000    -1.1151790000    -0.2610490000 
 O        5.6959250000    -0.8401150000    -0.4010770000 
 C        5.8544670000     0.5969960000    -0.3214060000 
 C        4.4550640000     1.1940170000    -0.1017600000 
 H        4.1314630000    -2.1623560000    -0.3026780000 
 H        6.3153710000     0.9227500000    -1.2545170000 
 H        6.5397370000     0.8007780000     0.5019760000 
 H        4.1634530000     1.8742930000    -0.9052090000 
 H        4.3815770000     1.7448070000     0.8388300000 
*
