! RI PBE def2-SVP def2-SVP/J NBO PAL2
% maxcore 2000
% output
    # printlevel mini
    print[ P_Basis ] 0
    print[ P_SCFInfo ] 1
    print[ P_SCFIterInfo ] 1
    print[ P_OrbEn ] 0
    print[ P_Cartesian ] 0
end
*xyz 0 1
 N        0.9324810000    -0.0084520000    -0.1886510000 
 C        2.0811360000    -0.0013420000    -0.1349550000 
 C        3.5417790000     0.0024130000    -0.0681530000 
 C        4.1298210000    -1.2523780000     0.6216790000 
 O        4.5957270000    -0.8338170000     1.9092870000 
 C        4.6090610000     0.5172380000     1.9015040000 
 C        4.0730880000     1.0934830000     0.8334770000 
 H        3.9106580000     0.0843160000    -1.0947440000 
 H        4.9869620000    -1.6268000000     0.0568010000 
 H        3.4038260000    -2.0520270000     0.7583910000 
 H        5.0472640000     0.9735410000     2.7783570000 
 H        3.9590970000     2.1502250000     0.6556070000 
*
