! RI PBE def2-SVP def2-SVP/J NBO PAL2
% maxcore 2000
% output
    # printlevel mini
    print[ P_Basis ] 0
    print[ P_SCFInfo ] 1
    print[ P_SCFIterInfo ] 1
    print[ P_OrbEn ] 0
    print[ P_Cartesian ] 0
end
*xyz 0 1
 N        3.7074100000     0.1768600000     0.8886190000 
 C        2.6437970000    -0.0684350000    -0.0861510000 
 C        2.9404650000     0.5687240000    -1.3950910000 
 C        3.1441720000    -0.0315270000    -2.5620410000 
 O        3.3998180000     0.7880160000    -3.6132590000 
 C        3.1982020000     2.1302650000    -3.1378050000 
 C        3.1190160000     2.0510510000    -1.6086550000 
 H        3.4600620000    -0.2370860000     1.7797190000 
 H        3.8037600000     1.1718330000     1.0544850000 
 H        1.6573830000     0.2798260000     0.2659500000 
 H        2.5600490000    -1.1494320000    -0.2302410000 
 H        3.1480540000    -1.0880780000    -2.7955410000 
 H        2.2618650000     2.4973740000    -3.5698920000 
 H        4.0198060000     2.7441820000    -3.5073310000 
 H        2.2875170000     2.6436260000    -1.2146860000 
 H        4.0353250000     2.4149920000    -1.1279900000 
*
