! RI PBE def2-SVP def2-SVP/J NBO PAL2
% maxcore 2000
% output
    # printlevel mini
    print[ P_Basis ] 0
    print[ P_SCFInfo ] 1
    print[ P_SCFIterInfo ] 1
    print[ P_OrbEn ] 0
    print[ P_Cartesian ] 0
end
*xyz 0 1
 N        3.4472340000     0.3283450000    -1.1141080000 
 C        2.5818740000    -0.1624440000    -0.0551930000 
 C        2.9962720000     0.4177700000     1.2901320000 
 C        2.1293370000    -0.0995760000     2.4512050000 
 O        1.7685160000     1.0345340000     3.2553210000 
 C        2.1186580000     2.1364000000     2.5424450000 
 C        2.7962440000     1.9018210000     1.4269960000 
 H        3.1155940000     0.0239550000    -2.0201850000 
 H        4.3851300000    -0.0387880000    -1.0041940000 
 H        2.5598650000    -1.2625110000     0.0261390000 
 H        1.5584870000     0.1606620000    -0.2711600000 
 H        4.0539490000     0.1611080000     1.4512090000 
 H        2.6358180000    -0.8202710000     3.0939500000 
 H        1.2036060000    -0.5531440000     2.0768130000 
 H        1.8080440000     3.0748050000     2.9814880000 
 H        3.1709820000     2.6379440000     0.7340430000 
*
