! RI PBE def2-SVP def2-SVP/J NBO PAL2
% maxcore 2000
% output
    # printlevel mini
    print[ P_Basis ] 0
    print[ P_SCFInfo ] 1
    print[ P_SCFIterInfo ] 1
    print[ P_OrbEn ] 0
    print[ P_Cartesian ] 0
end
*xyz 0 1
 N        1.3927400000    -0.7766950000     1.1830620000 
 C        2.3040240000    -0.0884670000     0.2837690000 
 C        3.2963120000    -1.0298020000    -0.3607280000 
 C        4.2187490000    -0.3727160000    -1.3664940000 
 O        4.9235420000    -1.3174630000    -2.1216020000 
 C        3.7420630000    -2.2427590000     0.3437400000 
 N        2.8248300000    -2.3363320000    -0.7968040000 
 H        0.5160760000    -0.2812610000     1.2601230000 
 H        1.7769760000    -0.8525130000     2.1150930000 
 H        2.8578650000     0.7334510000     0.7605680000 
 H        1.7098350000     0.3646640000    -0.5172150000 
 H        4.9483580000     0.2628370000    -0.8540950000 
 H        3.6130450000     0.2798230000    -2.0173200000 
 H        4.2991380000    -2.0483460000    -2.2503600000 
 H        3.3303890000    -2.4494020000     1.3257180000 
 H        4.7393580000    -2.6267330000     0.1613970000 
 H        1.8806090000    -2.4713770000    -0.4428310000 
*
