! RI PBE def2-SVP def2-SVP/J NBO PAL2
% maxcore 2000
% output
    # printlevel mini
    print[ P_Basis ] 0
    print[ P_SCFInfo ] 1
    print[ P_SCFIterInfo ] 1
    print[ P_OrbEn ] 0
    print[ P_Cartesian ] 0
end
*xyz 0 1
 N        1.0800230000    -0.1259640000    -0.3833710000 
 C        2.2065660000    -0.0801490000    -0.1603070000 
 C        3.6302950000    -0.0266150000     0.1197420000 
 C        4.1874030000    -1.2951000000     0.7749880000 
 O        5.1272600000    -0.8140130000     1.7443070000 
 N        4.8527940000     0.5013600000     2.0240110000 
 C        4.0234550000     0.9664880000     1.1887210000 
 H        4.1487500000     0.2215980000    -0.8150030000 
 H        4.7146540000    -1.9509320000     0.0845600000 
 H        3.3970760000    -1.8491670000     1.2898470000 
 H        3.7033240000     1.9975930000     1.2448060000 
*
