! RI PBE def2-SVP def2-SVP/J NBO PAL2
% maxcore 2000
% output
    # printlevel mini
    print[ P_Basis ] 0
    print[ P_SCFInfo ] 1
    print[ P_SCFIterInfo ] 1
    print[ P_OrbEn ] 0
    print[ P_Cartesian ] 0
end
*xyz 0 1
 N        1.9727790000    -0.9880730000     0.6012340000 
 C        1.8134470000     0.1356680000    -0.3114710000 
 C        2.7995990000     0.0474140000    -1.4399340000 
 N        2.6852390000    -1.0344160000    -2.4102800000 
 C        2.3763050000     0.3353210000    -2.8236590000 
 C        3.3205520000     0.8817840000    -3.8529500000 
 O        3.1490750000     0.2405570000    -5.0958730000 
 H        1.3316350000    -0.9088750000     1.3805000000 
 H        2.9088850000    -1.0019130000     0.9886550000 
 H        1.9213210000     1.1221270000     0.1671310000 
 H        0.7987680000     0.0929240000    -0.7223800000 
 H        3.8297160000     0.2740660000    -1.1679620000 
 H        1.8418920000    -1.5667270000    -2.2208870000 
 H        1.3282890000     0.5855680000    -2.9737910000 
 H        4.3515840000     0.7691600000    -3.4899890000 
 H        3.1362940000     1.9458840000    -4.0212690000 
 H        3.2401420000    -0.7029800000    -4.9242660000 
*
