! RI PBE def2-SVP def2-SVP/J NBO PAL2
% maxcore 2000
% output
    # printlevel mini
    print[ P_Basis ] 0
    print[ P_SCFInfo ] 1
    print[ P_SCFIterInfo ] 1
    print[ P_OrbEn ] 0
    print[ P_Cartesian ] 0
end
*xyz 0 1
 N        0.8707220000    -0.5346230000    -0.0227520000 
 C        2.2528000000    -0.0895500000    -0.0537990000 
 C        2.9167960000    -0.3261900000    -1.3927390000 
 N        4.2923030000     0.0814470000    -1.4948330000 
 C        2.5549980000    -1.5255730000    -2.2320710000 
 C        2.1607850000    -0.1469560000    -2.6767190000 
 O        2.8040000000     0.4542060000    -3.7446350000 
 H        0.3635140000    -0.0841880000     0.7261460000 
 H        0.8139140000    -1.5318850000     0.1368760000 
 H        2.8822410000    -0.5512090000     0.7260700000 
 H        2.2630050000     0.9898880000     0.1399290000 
 H        4.9167290000    -0.5724150000    -1.0398790000 
 H        4.4338580000     0.9938140000    -1.0766240000 
 H        1.7761170000    -2.1912450000    -1.8810300000 
 H        3.3636180000    -2.0013960000    -2.7748310000 
 H        1.1123550000     0.1151620000    -2.6086950000 
 H        3.7374340000     0.4930020000    -3.4831250000 
*
