! RI PBE def2-SVP def2-SVP/J NBO PAL2
% maxcore 2000
% output
    # printlevel mini
    print[ P_Basis ] 0
    print[ P_SCFInfo ] 1
    print[ P_SCFIterInfo ] 1
    print[ P_OrbEn ] 0
    print[ P_Cartesian ] 0
end
*xyz 0 1
 N        1.0390580000     0.1708290000    -0.0067300000 
 C        2.4895310000     0.0537510000    -0.0181310000 
 C        2.9500140000    -0.7768580000    -1.1584610000 
 N        3.8431600000    -0.5040320000    -2.0461600000 
 C        3.9015680000    -1.6319560000    -2.8419720000 
 C        3.0195580000    -2.5398710000    -2.3822870000 
 O        2.4029560000    -2.0042520000    -1.2948330000 
 H        0.7455210000     0.7543950000     0.7660920000 
 H        0.6146180000    -0.7385860000     0.1279630000 
 H        2.9129770000    -0.3690720000     0.9080360000 
 H        2.9336460000     1.0401280000    -0.1559610000 
 H        4.5678580000    -1.7026540000    -3.6865860000 
 H        2.7174340000    -3.5293330000    -2.6786710000 
*
