! RI PBE def2-SVP def2-SVP/J NBO PAL2
% maxcore 2000
% output
    # printlevel mini
    print[ P_Basis ] 0
    print[ P_SCFInfo ] 1
    print[ P_SCFIterInfo ] 1
    print[ P_OrbEn ] 0
    print[ P_Cartesian ] 0
end
*xyz 0 1
 N        0.9997150000    -0.0131370000    -0.0732580000 
 C        2.1480520000     0.0541270000    -0.0768790000 
 C        3.5637490000     0.1334690000    -0.0813360000 
 N        4.2944910000     1.1986130000    -0.0854710000 
 C        5.5815700000     0.7218560000    -0.0885270000 
 C        5.5504050000    -0.6308440000    -0.0860040000 
 O        4.2573770000    -1.0223010000    -0.0813540000 
 H        6.4344410000     1.3809500000    -0.0923050000 
 H        6.2939990000    -1.4092420000    -0.0868660000 
*
