! RI PBE def2-SVP def2-SVP/J NBO PAL2
% maxcore 2000
% output
    # printlevel mini
    print[ P_Basis ] 0
    print[ P_SCFInfo ] 1
    print[ P_SCFIterInfo ] 1
    print[ P_OrbEn ] 0
    print[ P_Cartesian ] 0
end
*xyz 0 1
 N        1.0250990000    -0.1646350000     0.3193470000 
 C        2.1642440000    -0.1580250000     0.1509490000 
 C        3.5648890000    -0.0562630000    -0.0481010000 
 N        4.2759680000    -1.1003670000    -0.2458650000 
 O        5.5704900000    -0.7609840000    -0.4079600000 
 C        5.7363120000     0.6761610000    -0.3070740000 
 C        4.3391800000     1.2299790000    -0.0490620000 
 H        6.1715610000     1.0216250000    -1.2455740000 
 H        6.4348750000     0.8681030000     0.5082010000 
 H        3.9855280000     1.9042730000    -0.8315280000 
 H        4.2448630000     1.7491440000     0.9067770000 
*
