! RI PBE def2-SVP def2-SVP/J NBO PAL2
% maxcore 2000
% output
    # printlevel mini
    print[ P_Basis ] 0
    print[ P_SCFInfo ] 1
    print[ P_SCFIterInfo ] 1
    print[ P_OrbEn ] 0
    print[ P_Cartesian ] 0
end
*xyz 0 1
 N        1.0449650000    -0.4098470000     0.4580210000 
 C        2.4380110000    -0.1446400000     0.1166930000 
 C        2.9707070000     1.0203880000     0.8794790000 
 N        4.0837050000     0.9539730000     1.4876040000 
 O        4.3878080000     2.1719620000     2.0643630000 
 C        3.2225630000     3.0097660000     2.0092990000 
 C        2.3337190000     2.3774510000     0.9515110000 
 H        0.7916170000    -1.3490190000     0.1815330000 
 H        0.4243490000     0.2173430000    -0.0379720000 
 H        2.5961460000     0.0404360000    -0.9585960000 
 H        3.0429810000    -1.0126670000     0.3821420000 
 H        3.5497650000     4.0237720000     1.7792340000 
 H        2.7423460000     2.9994980000     2.9937070000 
 H        2.3908410000     2.8764380000    -0.0232590000 
 H        1.2846670000     2.3297470000     1.2468210000 
*
