! RI PBE def2-SVP def2-SVP/J NBO PAL2
% maxcore 2000
% output
    # printlevel mini
    print[ P_Basis ] 0
    print[ P_SCFInfo ] 1
    print[ P_SCFIterInfo ] 1
    print[ P_OrbEn ] 0
    print[ P_Cartesian ] 0
end
*xyz 0 1
 N        1.6859440000    -0.7486560000     0.4887600000 
 C        2.3793160000     0.1834530000    -0.3822430000 
 C        2.9830780000     1.2875000000     0.4369340000 
 O        3.4496590000     2.4196110000    -0.2677370000 
 C        2.3161070000     2.5871270000     0.5857580000 
 C        2.5061740000     3.4264870000     1.7755120000 
 C        1.5833220000     4.2555560000     2.2450910000 
 H        1.3977030000    -1.5733360000    -0.0201330000 
 H        0.8520840000    -0.3259670000     0.8772280000 
 H        1.7604240000     0.6357390000    -1.1719550000 
 H        3.1903870000    -0.3548130000    -0.8834390000 
 H        3.6286160000     0.9542490000     1.2492920000 
 H        1.3780130000     2.7319950000     0.0492560000 
 H        3.4689430000     3.3316410000     2.2714580000 
 H        0.6229960000     4.3703250000     1.7519620000 
 H        1.7517450000     4.8462790000     3.1371670000 
*
