! RI PBE def2-SVP def2-SVP/J NBO PAL2
% maxcore 2000
% output
    # printlevel mini
    print[ P_Basis ] 0
    print[ P_SCFInfo ] 1
    print[ P_SCFIterInfo ] 1
    print[ P_OrbEn ] 0
    print[ P_Cartesian ] 0
end
*xyz 0 1
 N        3.0284160000     1.1375760000     0.7669700000 
 C        2.4350080000     0.0286770000     0.0435880000 
 C        2.9765420000    -0.0112130000    -1.3558050000 
 O        2.2997240000    -0.8426400000    -2.2759030000 
 C        2.2251740000     0.5651420000    -2.4812070000 
 C        2.8830620000     1.1037690000    -3.6384960000 
 C        3.4122940000     1.5783870000    -4.6055830000 
 H        2.8037160000     1.0903960000     1.7514100000 
 H        2.6839100000     2.0235420000     0.4190540000 
 H        1.3355620000     0.0356220000    -0.0088400000 
 H        2.7228710000    -0.9013470000     0.5442350000 
 H        4.0617790000    -0.0241560000    -1.4383680000 
 H        1.2457570000     0.9911110000    -2.2681020000 
 H        3.8887050000     1.9906330000    -5.4635540000 
*
