! RI PBE def2-SVP def2-SVP/J NBO PAL2
% maxcore 2000
% output
    # printlevel mini
    print[ P_Basis ] 0
    print[ P_SCFInfo ] 1
    print[ P_SCFIterInfo ] 1
    print[ P_OrbEn ] 0
    print[ P_Cartesian ] 0
end
*xyz 0 1
 N        2.2631960000    -0.9553510000     1.0357440000 
 C        2.2651530000     0.1324550000     0.0687860000 
 C        2.9649790000     1.3322300000     0.6580440000 
 O        2.9199030000     2.4785510000    -0.2054460000 
 C        2.5226590000     3.3292390000     0.8777730000 
 C        2.2741140000     2.1279190000     1.7902290000 
 N        2.8058400000     2.2106210000     3.1212200000 
 H        2.0401200000    -1.8341530000     0.5885540000 
 H        1.5561700000    -0.8019700000     1.7438610000 
 H        1.2653280000     0.4427530000    -0.2707080000 
 H        2.8158660000    -0.1890020000    -0.8201020000 
 H        3.9986780000     1.0646810000     0.9213320000 
 H        1.6706580000     3.9633170000     0.6191020000 
 H        3.3503000000     3.9620070000     1.2247630000 
 H        1.2097710000     1.8808880000     1.8524680000 
 H        3.8062520000     2.3703320000     3.0988800000 
 H        2.6510930000     1.3522040000     3.6344910000 
*
