! RI PBE def2-SVP def2-SVP/J NBO PAL2
% maxcore 2000
% output
    # printlevel mini
    print[ P_Basis ] 0
    print[ P_SCFInfo ] 1
    print[ P_SCFIterInfo ] 1
    print[ P_OrbEn ] 0
    print[ P_Cartesian ] 0
end
*xyz 0 1
 N        2.3129160000    -1.3283900000     0.1087510000 
 C        2.5383860000     0.0965430000    -0.0610480000 
 C        3.0277490000     0.3591830000    -1.4615650000 
 O        3.2314690000     1.7524220000    -1.7448850000 
 C        4.4617220000     1.4729670000    -2.4259760000 
 C        4.4907930000     0.0625530000    -1.8297480000 
 O        4.8158690000    -1.0383110000    -2.6181020000 
 H        1.9231580000    -1.5251910000     1.0207160000 
 H        3.1839390000    -1.8408890000     0.0390000000 
 H        3.2550290000     0.5405040000     0.6476590000 
 H        1.5877240000     0.6214980000     0.0747240000 
 H        2.3322530000    -0.0980670000    -2.1829580000 
 H        5.2565960000     2.1727590000    -2.1570110000 
 H        4.3320900000     1.4677660000    -3.5174730000 
 H        5.1275000000     0.0064000000    -0.9436730000 
 H        4.2203270000    -1.0636380000    -3.3730210000 
*
