! RI PBE def2-SVP def2-SVP/J NBO PAL2
% maxcore 2000
% output
    # printlevel mini
    print[ P_Basis ] 0
    print[ P_SCFInfo ] 1
    print[ P_SCFIterInfo ] 1
    print[ P_OrbEn ] 0
    print[ P_Cartesian ] 0
end
*xyz 0 1
 N        3.7480550000     0.4226170000    -1.0379230000 
 C        2.6771290000    -0.0992670000    -0.2043770000 
 C        3.0201920000    -0.0437460000     1.2618130000 
 O        2.0408360000    -0.6709720000     2.0240180000 
 C        4.4428630000    -0.1225260000     1.7524390000 
 C        3.6597640000     1.1591510000     1.8639610000 
 O        3.1244720000     1.5341870000     3.0999110000 
 H        3.3912690000     0.6986870000    -1.9420320000 
 H        4.4529430000    -0.2843830000    -1.2026970000 
 H        2.3917500000    -1.1352270000    -0.4368940000 
 H        1.7835560000     0.5132000000    -0.3573280000 
 H        1.9200180000    -0.1265880000     2.8132780000 
 H        5.2645640000    -0.1408580000     1.0474490000 
 H        4.5845940000    -0.6965900000     2.6610290000 
 H        3.9347320000     1.9760410000     1.2033470000 
 H        3.8449660000     1.6971760000     3.7136070000 
*
