! RI PBE def2-SVP def2-SVP/J NBO PAL2
% maxcore 2000
% output
    # printlevel mini
    print[ P_Basis ] 0
    print[ P_SCFInfo ] 1
    print[ P_SCFIterInfo ] 1
    print[ P_OrbEn ] 0
    print[ P_Cartesian ] 0
end
*xyz 0 1
 N        1.0738670000     0.3785790000    -0.5181690000 
 C        2.3673630000     0.0338440000     0.0441760000 
 C        2.9335340000     1.1255710000     0.9357220000 
 O        4.1864350000     0.7067850000     1.4470530000 
 C        2.9856740000     2.5810900000     0.4129420000 
 C        2.5578550000     3.0587610000     1.8148310000 
 C        2.0864100000     1.6228690000     2.1149300000 
 H        0.5924370000    -0.4478980000    -0.8448500000 
 H        1.1721490000     0.9973150000    -1.3123700000 
 H        3.1284710000    -0.2140310000    -0.7171350000 
 H        2.2504090000    -0.8584780000     0.6664640000 
 H        4.7944010000     0.6109560000     0.7075760000 
 H        2.2101660000     2.7793040000    -0.3300650000 
 H        3.9494840000     2.9190540000     0.0248100000 
 H        1.8099910000     3.8510060000     1.8610220000 
 H        3.4146130000     3.3425700000     2.4261160000 
 H        1.0256600000     1.4856920000     1.9010340000 
 H        2.3368700000     1.1887000000     3.0834330000 
*
