! RI PBE def2-SVP def2-SVP/J NBO PAL2
% maxcore 2000
% output
    # printlevel mini
    print[ P_Basis ] 0
    print[ P_SCFInfo ] 1
    print[ P_SCFIterInfo ] 1
    print[ P_OrbEn ] 0
    print[ P_Cartesian ] 0
end
*xyz 0 1
 N        0.9251510000    -0.2968140000    -0.2762260000 
 C        2.3058590000     0.1144760000    -0.0843960000 
 C        2.9098490000    -0.4579430000     1.1793570000 
 O        4.2149850000     0.0671240000     1.2553420000 
 C        2.1462950000    -0.3515460000     2.5184000000 
 N        2.6061660000    -1.7137730000     2.8389270000 
 C        2.8526560000    -1.9795940000     1.4082720000 
 H        0.6569350000    -0.1963530000    -1.2454780000 
 H        0.2950390000     0.2823160000     0.2634340000 
 H        2.4538010000     1.2035800000    -0.0592300000 
 H        2.9018370000    -0.2604760000    -0.9217190000 
 H        4.6323870000    -0.3103320000     2.0360590000 
 H        1.0616180000    -0.2681390000     2.3775630000 
 H        2.4867830000     0.4299180000     3.2041910000 
 H        1.9233560000    -2.3125030000     3.2843480000 
 H        2.0043920000    -2.4238230000     0.8767820000 
 H        3.7701910000    -2.5343080000     1.1905730000 
*
