! RI PBE def2-SVP def2-SVP/J NBO PAL2
% maxcore 2000
% output
    # printlevel mini
    print[ P_Basis ] 0
    print[ P_SCFInfo ] 1
    print[ P_SCFIterInfo ] 1
    print[ P_OrbEn ] 0
    print[ P_Cartesian ] 0
end
*xyz 0 1
 N        0.9365090000     0.0311780000    -0.1557950000 
 C        2.3722600000     0.0533480000     0.0761530000 
 C        3.1214390000     0.2738260000    -1.2262300000 
 C        4.6113310000     0.3465940000    -1.0433940000 
 C        5.4785790000     1.0412020000    -2.0604480000 
 C        5.2777570000     1.6490810000    -0.7192330000 
 O        6.3927800000     1.6755230000     0.1156060000 
 H        0.4329030000    -0.0865580000     0.7141820000 
 H        0.6883300000    -0.7538380000    -0.7464730000 
 H        2.7586000000    -0.8591930000     0.5597860000 
 H        2.5911800000     0.8829380000     0.7568360000 
 H        2.7548720000     1.1960670000    -1.6891570000 
 H        2.8759350000    -0.5361610000    -1.9256450000 
 H        5.0729470000    -0.5183160000    -0.5743180000 
 H        4.9999860000     1.5062230000    -2.9141200000 
 H        6.4578180000     0.6206180000    -2.2508760000 
 H        4.6390010000     2.5296610000    -0.6609420000 
 H        6.0929750000     1.5562080000     1.0207810000 
*
