! RI PBE def2-SVP def2-SVP/J NBO PAL2
% maxcore 2000
% output
    # printlevel mini
    print[ P_Basis ] 0
    print[ P_SCFInfo ] 1
    print[ P_SCFIterInfo ] 1
    print[ P_OrbEn ] 0
    print[ P_Cartesian ] 0
end
*xyz 0 1
 N        0.8118360000     0.2772130000     0.2120730000 
 C        2.0102240000    -0.4657470000    -0.1462220000 
 C        3.2290690000     0.1263680000     0.5374350000 
 C        4.4915610000    -0.6416690000     0.2494590000 
 C        5.7480010000    -0.3097410000     1.0630410000 
 C        5.7350820000    -1.7975470000     1.4165030000 
 O        4.4656030000    -1.9844790000     0.7777010000 
 H       -0.0119010000    -0.1646020000    -0.1756780000 
 H        0.8487260000     1.2152580000    -0.1691880000 
 H        2.1959570000    -0.5127180000    -1.2321020000 
 H        1.8869370000    -1.4970270000     0.1957030000 
 H        3.0549580000     0.1548200000     1.6176080000 
 H        3.3771880000     1.1628980000     0.2050830000 
 H        4.6783040000    -0.6720370000    -0.8337930000 
 H        5.5531710000     0.3520520000     1.9077720000 
 H        6.6099520000     0.0544620000     0.5057610000 
 H        5.6999220000    -2.0540990000     2.4790440000 
 H        6.5207000000    -2.3889160000     0.9323090000 
*
