! RI PBE def2-SVP def2-SVP/J NBO PAL2
% maxcore 2000
% output
    # printlevel mini
    print[ P_Basis ] 0
    print[ P_SCFInfo ] 1
    print[ P_SCFIterInfo ] 1
    print[ P_OrbEn ] 0
    print[ P_Cartesian ] 0
end
*xyz 0 1
 N        0.8749130000    -0.1236810000    -0.2486630000 
 C        2.2115730000     0.3707280000    -0.5362470000 
 C        3.2626230000    -0.5325000000     0.0832990000 
 C        4.6746110000    -0.1056020000    -0.2436820000 
 C        5.8211650000    -1.0359520000     0.1711320000 
 O        6.3210510000    -1.1009740000    -1.1707130000 
 C        5.1976740000    -0.3607820000    -1.6647350000 
 H        0.1736170000     0.4534330000    -0.6951380000 
 H        0.6929350000    -0.0894510000     0.7474940000 
 H        2.3864670000     1.4055620000    -0.1977800000 
 H        2.3391760000     0.3751240000    -1.6244830000 
 H        3.0924500000    -1.5585790000    -0.2605520000 
 H        3.1306460000    -0.5437500000     1.1733130000 
 H        4.8465000000     0.9253910000     0.0767060000 
 H        5.4943190000    -2.0197850000     0.5305560000 
 H        6.5632950000    -0.6290560000     0.8647480000 
 H        4.5393750000    -0.9862820000    -2.2815410000 
 H        5.5085200000     0.5128470000    -2.2456930000 
*
