! RI PBE def2-SVP def2-SVP/J NBO PAL2
% maxcore 2000
% output
    # printlevel mini
    print[ P_Basis ] 0
    print[ P_SCFInfo ] 1
    print[ P_SCFIterInfo ] 1
    print[ P_OrbEn ] 0
    print[ P_Cartesian ] 0
end
*xyz 0 1
 N        0.6915820000    -0.1651320000     0.0031760000 
 C        2.1413530000    -0.1006050000     0.1359690000 
 C        2.8040590000    -0.5541160000    -1.1527900000 
 C        4.3230070000    -0.4314060000    -1.1511760000 
 C        5.0137170000    -1.3461180000    -0.1835480000 
 C        6.3156130000    -1.0286690000     0.3929560000 
 O        5.1328320000    -0.9121890000     1.1662030000 
 H        0.2440110000     0.1741000000     0.8455280000 
 H        0.3950670000    -1.1273350000    -0.1131600000 
 H        2.5363740000    -0.6828490000     0.9803480000 
 H        2.4156600000     0.9424360000     0.3266910000 
 H        2.3884420000     0.0344010000    -1.9761660000 
 H        2.5271800000    -1.5979000000    -1.3536000000 
 H        4.6188210000     0.5991720000    -0.9266930000 
 H        4.7012510000    -0.6576730000    -2.1547430000 
 H        4.7546850000    -2.4023300000    -0.2745710000 
 H        6.7931320000    -0.0866030000     0.1319760000 
 H        6.9898050000    -1.8287840000     0.6890780000 
*
