! RI PBE def2-SVP def2-SVP/J NBO PAL2
% maxcore 2000
% output
    # printlevel mini
    print[ P_Basis ] 0
    print[ P_SCFInfo ] 1
    print[ P_SCFIterInfo ] 1
    print[ P_OrbEn ] 0
    print[ P_Cartesian ] 0
end
*xyz 0 1
 N        0.9519690000     0.1108810000     0.4169450000 
 C        2.0806220000     0.0063030000     0.2250260000 
 C        3.5117610000    -0.1281990000     0.0108230000 
 C        4.2651770000    -0.4650630000     1.3003610000 
 C        5.7356040000    -0.5924130000     1.0420110000 
 C        6.5502320000    -1.6132440000     1.6901170000 
 O        6.1474090000    -1.7541230000     0.3370590000 
 H        3.8829340000     0.8075420000    -0.4189100000 
 H        3.6822840000    -0.9123570000    -0.7322060000 
 H        3.8836440000    -1.4028890000     1.7108040000 
 H        4.0899800000     0.3151920000     2.0467210000 
 H        6.2368790000     0.3182310000     0.7118220000 
 H        6.0804640000    -2.3020100000     2.3882650000 
 H        7.6120620000    -1.4393410000     1.8432510000 
*
