! RI PBE def2-SVP def2-SVP/J NBO PAL2
% maxcore 2000
% output
    # printlevel mini
    print[ P_Basis ] 0
    print[ P_SCFInfo ] 1
    print[ P_SCFIterInfo ] 1
    print[ P_OrbEn ] 0
    print[ P_Cartesian ] 0
end
*xyz 0 1
 N        0.9996950000     0.0757250000    -0.0731670000 
 C        2.1400630000    -0.0832620000    -0.1108810000 
 C        3.5485810000    -0.2795800000    -0.1258120000 
 C        4.2629530000    -0.2864120000    -1.2498560000 
 C        5.7301280000    -0.4666460000    -1.2881620000 
 C        6.4240560000    -1.4557470000    -0.4711390000 
 O        6.1940150000    -1.6844620000    -1.8524080000 
 H        4.0211890000    -0.4179680000     0.8415100000 
 H        3.7677260000    -0.1346640000    -2.2051080000 
 H        6.2887760000     0.4090270000    -1.6207120000 
 H        5.8523870000    -2.0890570000     0.2019420000 
 H        7.4614210000    -1.2866430000    -0.1950170000 
*
