! RI PBE def2-SVP def2-SVP/J NBO PAL2
% maxcore 2000
% output
    # printlevel mini
    print[ P_Basis ] 0
    print[ P_SCFInfo ] 1
    print[ P_SCFIterInfo ] 1
    print[ P_OrbEn ] 0
    print[ P_Cartesian ] 0
end
*xyz 0 1
 N        0.7042220000    -0.2966150000     0.1540880000 
 C        2.1482370000    -0.2422280000     0.0384400000 
 C        2.9208760000     0.1352110000     1.2750850000 
 C        2.3960590000     0.4386450000     2.4531610000 
 C        2.6424920000    -1.5753280000    -0.4760090000 
 C        2.8542830000    -1.8195610000    -1.8940240000 
 O        3.9511880000    -1.5930170000    -1.0170340000 
 H        0.3340140000     0.6135720000     0.3981390000 
 H        0.4317810000    -0.9322550000     0.8956940000 
 H        2.3922840000     0.4936210000    -0.7389510000 
 H        4.0014620000     0.1404940000     1.1489720000 
 H        1.3233980000     0.4469180000     2.6187690000 
 H        3.0219860000     0.6955140000     3.2993880000 
 H        2.4131560000    -2.4266300000     0.1668860000 
 H        2.6512030000    -1.0196120000    -2.6016590000 
 H        2.7781590000    -2.8295280000    -2.2879340000 
*
