! RI PBE def2-SVP def2-SVP/J NBO PAL2
% maxcore 2000
% output
    # printlevel mini
    print[ P_Basis ] 0
    print[ P_SCFInfo ] 1
    print[ P_SCFIterInfo ] 1
    print[ P_OrbEn ] 0
    print[ P_Cartesian ] 0
end
*xyz 0 1
 N        1.5708020000     0.6211830000     0.2204200000 
 C        2.9754410000     0.2848490000     0.1178010000 
 C        3.3714860000    -0.8795010000     0.9788020000 
 C        2.5091700000    -1.6110610000     1.6735330000 
 C        4.8347880000    -1.1369180000     1.0181890000 
 C        5.4055290000    -2.4743280000     0.9250920000 
 O        5.4340520000    -1.6002200000    -0.1915440000 
 H        1.3161680000     1.3009380000    -0.4831820000 
 H        1.3667180000     1.0301460000     1.1240960000 
 H        3.6556170000     1.1221840000     0.3534020000 
 H        3.1952400000     0.0166590000    -0.9219400000 
 H        1.4464340000    -1.4051250000     1.6313040000 
 H        2.8447600000    -2.4389100000     2.2874850000 
 H        5.4293870000    -0.3685010000     1.5154930000 
 H        4.7397760000    -3.3274510000     0.8270150000 
 H        6.3725330000    -2.6788430000     1.3785330000 
*
