! RI PBE def2-SVP def2-SVP/J NBO PAL2
% maxcore 2000
% output
    # printlevel mini
    print[ P_Basis ] 0
    print[ P_SCFInfo ] 1
    print[ P_SCFIterInfo ] 1
    print[ P_OrbEn ] 0
    print[ P_Cartesian ] 0
end
*xyz 0 1
 N        0.5236770000     0.5432380000     0.7256540000 
 C        1.9373180000     0.2224900000     0.8503490000 
 C        2.5493790000     0.9431490000     2.0366840000 
 C        4.0385670000     0.6817130000     2.1922750000 
 C        4.6508670000     1.3943600000     3.3878880000 
 C        6.1397180000     1.1417140000     3.5247710000 
 O        6.7068580000     1.7525590000     4.6648100000 
 H        0.1210980000     0.0851710000    -0.0821210000 
 H        0.0153990000     0.2083350000     1.5357000000 
 H        2.4385710000     0.5529310000    -0.0659590000 
 H        2.1406780000    -0.8571900000     0.9449250000 
 H        2.0294600000     0.6332720000     2.9525930000 
 H        2.3628480000     2.0166040000     1.9266090000 
 H        4.5574630000     0.9926220000     1.2769080000 
 H        4.2128310000    -0.3972350000     2.2871360000 
 H        4.1551240000     1.0766190000     4.3114860000 
 H        4.4762500000     2.4747070000     3.2957120000 
 H        6.6583610000     1.4621350000     2.6088740000 
 H        6.3281760000     0.0707210000     3.6402010000 
 H        6.5571370000     2.6993860000     4.6033240000 
*
