! RI PBE def2-SVP def2-SVP/J NBO PAL2
% maxcore 2000
% output
    # printlevel mini
    print[ P_Basis ] 0
    print[ P_SCFInfo ] 1
    print[ P_SCFIterInfo ] 1
    print[ P_OrbEn ] 0
    print[ P_Cartesian ] 0
end
*xyz 0 1
 N        1.2698120000    -0.7865120000    -0.1864270000 
 C        2.5407420000    -0.3666290000    -0.1008120000 
 C        2.9792500000     0.8127410000     0.4186560000 
 C        2.0869840000     1.7747500000     1.0481920000 
 C        2.2832550000     3.0891440000     1.1609570000 
 C        4.4211120000     1.0404840000     0.3717880000 
 O        5.2338610000     0.3234860000    -0.1729800000 
 H        1.0515400000    -1.6794460000    -0.5848080000 
 H        0.5038000000    -0.1911580000     0.0715740000 
 H        3.2917590000    -1.0448070000    -0.4952690000 
 H        1.1814620000     1.3668810000     1.4992610000 
 H        3.1455370000     3.5847200000     0.7293430000 
 H        1.5771080000     3.7137480000     1.6940480000 
 H        4.7585580000     1.9477190000     0.9129780000 
*
