! RI PBE def2-SVP def2-SVP/J NBO PAL2
% maxcore 2000
% output
    # printlevel mini
    print[ P_Basis ] 0
    print[ P_SCFInfo ] 1
    print[ P_SCFIterInfo ] 1
    print[ P_OrbEn ] 0
    print[ P_Cartesian ] 0
end
*xyz 0 1
 N        2.8749720000    -0.2384040000    -1.6620270000 
 C        3.5959300000    -0.3719020000    -0.4034680000 
 C        3.2073370000     0.7182390000     0.5396430000 
 C        4.0632010000     1.5388160000     1.1418720000 
 C        3.6877880000     2.6414950000     2.0758770000 
 C        3.9101370000     4.0088460000     1.4377810000 
 O        3.0900660000     4.2093760000     0.3116230000 
 H        3.0402660000    -1.0391610000    -2.2582080000 
 H        3.1909440000     0.5817480000    -2.1648510000 
 H        4.6919290000    -0.3886130000    -0.5053210000 
 H        3.3058600000    -1.3343440000     0.0347140000 
 H        2.1397050000     0.8149830000     0.7314320000 
 H        5.1268310000     1.4323010000     0.9237900000 
 H        4.2900480000     2.5819650000     2.9898630000 
 H        2.6364560000     2.5515180000     2.3644500000 
 H        4.9730210000     4.1255930000     1.1766270000 
 H        3.6588380000     4.7989780000     2.1492220000 
 H        3.1285590000     3.4044570000    -0.2169180000 
*
