! RI PBE def2-SVP def2-SVP/J NBO PAL2
% maxcore 2000
% output
    # printlevel mini
    print[ P_Basis ] 0
    print[ P_SCFInfo ] 1
    print[ P_SCFIterInfo ] 1
    print[ P_OrbEn ] 0
    print[ P_Cartesian ] 0
end
*xyz 0 1
 N        0.9540340000    -0.1424680000     0.2097090000 
 C        2.3891430000     0.0572430000     0.0379030000 
 C        2.9256530000    -0.7969770000    -1.0122210000 
 C        3.3729540000    -1.5107650000    -1.8706320000 
 C        3.9142460000    -2.3927100000    -2.8900690000 
 C        4.3483890000    -3.7446230000    -2.3250590000 
 O        4.9181920000    -4.5749850000    -3.3093330000 
 H        0.6217560000     0.4135840000     0.9882340000 
 H        0.7661150000    -1.1126630000     0.4304660000 
 H        2.9779940000    -0.1171900000     0.9524510000 
 H        2.5559650000     1.1034260000    -0.2409260000 
 H        4.7755950000    -1.9230010000    -3.3758840000 
 H        3.1610510000    -2.5501440000    -3.6719400000 
 H        3.4957390000    -4.2277010000    -1.8311500000 
 H        5.1207780000    -3.5923210000    -1.5690620000 
 H        4.2348850000    -4.8190040000    -3.9386870000 
*
