! RI PBE def2-SVP def2-SVP/J NBO PAL2
% maxcore 2000
% output
    # printlevel mini
    print[ P_Basis ] 0
    print[ P_SCFInfo ] 1
    print[ P_SCFIterInfo ] 1
    print[ P_OrbEn ] 0
    print[ P_Cartesian ] 0
end
*xyz 0 1
 N        0.8763260000    -0.0035470000    -0.1811410000 
 C        2.3219890000     0.1224880000    -0.0901160000 
 C        2.9481690000    -1.2103840000     0.2995410000 
 C        4.4383430000    -1.1714700000     0.2881190000 
 C        5.2281680000    -1.4155890000     1.3282490000 
 C        6.7177000000    -1.3626850000     1.2787800000 
 O        7.2547160000    -0.4248530000     2.1956790000 
 H        0.4589000000     0.8684810000    -0.4806700000 
 H        0.4832450000    -0.2191570000     0.7275650000 
 H        2.6616710000     0.8936370000     0.6192260000 
 H        2.6970750000     0.4172660000    -1.0759510000 
 H        2.5864270000    -1.9657780000    -0.4077680000 
 H        2.5934860000    -1.5087640000     1.2923150000 
 H        4.9040860000    -0.9221970000    -0.6666030000 
 H        4.7910070000    -1.6588300000     2.2958030000 
 H        7.0493970000    -1.1525430000     0.2525020000 
 H        7.1464690000    -2.3258060000     1.5710960000 
 H        6.8315170000     0.4210210000     2.0247630000 
*
