! RI PBE def2-SVP def2-SVP/J NBO PAL2
% maxcore 2000
% output
    # printlevel mini
    print[ P_Basis ] 0
    print[ P_SCFInfo ] 1
    print[ P_SCFIterInfo ] 1
    print[ P_OrbEn ] 0
    print[ P_Cartesian ] 0
end
*xyz 0 1
 N        0.7009750000     0.1645900000    -0.0981600000 
 C        1.9535970000    -0.5188870000     0.1812270000 
 C        2.9731140000    -0.2036600000    -0.9090720000 
 C        4.3284360000    -0.7990180000    -0.6635820000 
 C        5.3926200000    -0.0507780000    -0.3922640000 
 C        4.4156150000    -2.2982430000    -0.7507390000 
 O        5.7159090000    -2.8258150000    -0.7191470000 
 H        0.0371570000     0.0160350000     0.6512100000 
 H        0.2780560000    -0.2027670000    -0.9424680000 
 H        1.8455930000    -1.6096440000     0.2847170000 
 H        2.3381500000    -0.1486010000     1.1363440000 
 H        3.0523570000     0.8823170000    -0.9957200000 
 H        2.5812530000    -0.5721810000    -1.8674700000 
 H        5.3205000000     1.0301920000    -0.3519840000 
 H        6.3591570000    -0.4944110000    -0.1835620000 
 H        3.8761350000    -2.6249690000    -1.6549010000 
 H        3.8896980000    -2.7501580000     0.0966160000 
 H        6.2194870000    -2.4094010000    -1.4246460000 
*
