! RI PBE def2-SVP def2-SVP/J NBO PAL2
% maxcore 2000
% output
    # printlevel mini
    print[ P_Basis ] 0
    print[ P_SCFInfo ] 1
    print[ P_SCFIterInfo ] 1
    print[ P_OrbEn ] 0
    print[ P_Cartesian ] 0
end
*xyz 0 1
 N        0.9642790000    -0.2174820000     0.0707120000 
 C        2.4162420000    -0.2138050000     0.0329250000 
 C        2.9675060000     0.1089740000     1.4198620000 
 C        4.4192030000     0.0989980000     1.4710670000 
 C        5.6228210000     0.0853430000     1.4770120000 
 C        7.0788390000     0.0436570000     1.5323490000 
 O        7.6073640000    -1.2666340000     1.5720190000 
 H        0.5846310000    -0.5613820000    -0.8016620000 
 H        0.6071100000     0.7221240000     0.1969140000 
 H        2.8507240000     0.4894790000    -0.6923560000 
 H        2.7557990000    -1.2122540000    -0.2538940000 
 H        2.5592630000    -0.6113600000     2.1357710000 
 H        2.6041480000     1.0943430000     1.7362590000 
 H        7.4209650000     0.6330670000     2.3947590000 
 H        7.4995440000     0.5117370000     0.6385640000 
 H        7.1278820000    -1.7559750000     2.2458780000 
*
