! RI PBE def2-SVP def2-SVP/J NBO PAL2
% maxcore 2000
% output
    # printlevel mini
    print[ P_Basis ] 0
    print[ P_SCFInfo ] 1
    print[ P_SCFIterInfo ] 1
    print[ P_OrbEn ] 0
    print[ P_Cartesian ] 0
end
*xyz 0 1
 N        0.7916150000    -0.2418320000    -0.1190600000 
 C        2.2375760000    -0.2417070000     0.0067270000 
 C        2.7992330000    -0.5024140000     1.3757860000 
 C        2.0971730000    -0.5126050000     2.4990140000 
 C        2.9085110000    -1.1844450000    -1.0099640000 
 N        2.0788720000    -1.6475290000    -1.9620200000 
 O        4.0928580000    -1.4414470000    -0.9470010000 
 H        0.3984460000     0.6308040000     0.2065390000 
 H        0.3909800000    -0.9807160000     0.4478550000 
 H        2.5933760000     0.7487600000    -0.3105650000 
 H        3.8666740000    -0.6979590000     1.3891430000 
 H        1.0289850000    -0.3198650000     2.5199770000 
 H        2.5721380000    -0.7125160000     3.4518420000 
 H        1.1271750000    -1.3183430000    -1.9702430000 
 H        2.4550880000    -2.2077060000    -2.7060220000 
*
