! RI PBE def2-SVP def2-SVP/J NBO PAL2
% maxcore 2000
% output
    # printlevel mini
    print[ P_Basis ] 0
    print[ P_SCFInfo ] 1
    print[ P_SCFIterInfo ] 1
    print[ P_OrbEn ] 0
    print[ P_Cartesian ] 0
end
*xyz 0 1
 N        0.8818880000    -0.1284520000    -0.0238650000 
 C        2.3392590000    -0.0302640000    -0.0113150000 
 C        2.9048020000     0.2316380000     1.3078040000 
 C        3.3006220000     0.4523650000     2.4186850000 
 C        3.0129330000    -1.2588770000    -0.6642910000 
 N        2.1630070000    -2.0126840000    -1.3852960000 
 O        4.1991470000    -1.4624430000    -0.5529950000 
 H        0.4717010000     0.7929970000     0.0576210000 
 H        0.5704700000    -0.6558600000     0.7840840000 
 H        2.6183150000     0.7976460000    -0.6748050000 
 H        3.6728770000     0.6407770000     3.3978540000 
 H        1.1984570000    -1.7309740000    -1.4498700000 
 H        2.5260230000    -2.7906690000    -1.9067230000 
*
