! RI PBE def2-SVP def2-SVP/J NBO PAL2
% maxcore 2000
% output
    # printlevel mini
    print[ P_Basis ] 0
    print[ P_SCFInfo ] 1
    print[ P_SCFIterInfo ] 1
    print[ P_OrbEn ] 0
    print[ P_Cartesian ] 0
end
*xyz 0 1
 N        2.0438170000     1.2045810000    -0.6244540000 
 C        2.9664870000     0.1423010000    -0.2495680000 
 C        2.9238550000    -0.0818970000     1.2226340000 
 C        3.9950940000    -0.0950360000     2.0181380000 
 C        3.9168500000    -0.3260310000     3.4408950000 
 N        4.9804130000    -0.3289540000     4.1415440000 
 O        4.7086910000    -0.5628790000     5.4732480000 
 H        1.9895380000     1.2950330000    -1.6308100000 
 H        2.3615120000     2.0926430000    -0.2561080000 
 H        4.0086570000     0.3090260000    -0.5614430000 
 H        2.6298650000    -0.7726940000    -0.7528860000 
 H        1.9325860000    -0.2302940000     1.6466760000 
 H        4.9896290000     0.0687150000     1.6113010000 
 H        2.9445070000    -0.4961970000     3.9073150000 
 H        5.5786990000    -0.5409080000     5.8814180000 
*
