! RI PBE def2-SVP def2-SVP/J NBO PAL2
% maxcore 2000
% output
    # printlevel mini
    print[ P_Basis ] 0
    print[ P_SCFInfo ] 1
    print[ P_SCFIterInfo ] 1
    print[ P_OrbEn ] 0
    print[ P_Cartesian ] 0
end
*xyz 0 1
 N        3.8929750000     1.1038710000    -0.0160200000 
 C        2.7807410000     0.1826300000     0.1060040000 
 C        3.1954580000    -1.2463590000     0.0919390000 
 C        4.4467910000    -1.6907980000     0.0932330000 
 C        4.7226620000    -3.1487780000     0.0745340000 
 N        6.0435820000    -3.4695370000     0.1286970000 
 O        3.8565170000    -3.9993590000     0.0059920000 
 H        3.5836760000     2.0561190000     0.1253510000 
 H        4.2921580000     1.0530640000    -0.9455880000 
 H        2.0020950000     0.3115000000    -0.6649880000 
 H        2.2735590000     0.3762990000     1.0600420000 
 H        2.3999000000    -1.9881200000     0.0724750000 
 H        5.2769240000    -0.9920640000     0.1291870000 
 H        6.7510160000    -2.7737470000     0.2741240000 
 H        6.2942660000    -4.4413210000     0.1785190000 
*
