! RI PBE def2-SVP def2-SVP/J NBO PAL2
% maxcore 2000
% output
    # printlevel mini
    print[ P_Basis ] 0
    print[ P_SCFInfo ] 1
    print[ P_SCFIterInfo ] 1
    print[ P_OrbEn ] 0
    print[ P_Cartesian ] 0
end
*xyz 0 1
 N        1.6028120000    -0.6730540000    -0.0347720000 
 C        2.9976360000    -0.3954040000    -0.3231640000 
 C        3.1751090000     0.4711600000    -1.5380160000 
 C        2.1547670000     1.0285880000    -2.1935440000 
 C        4.5321390000     0.7078030000    -2.0056170000 
 N        5.5297360000     0.2064910000    -1.3960440000 
 O        6.7210670000     0.5613990000    -1.9946040000 
 H        1.5138200000    -1.0990010000     0.8777690000 
 H        1.2253410000    -1.3297920000    -0.7071570000 
 H        3.6190010000    -1.2923680000    -0.4561020000 
 H        3.4317820000     0.1312100000     0.5334130000 
 H        1.1365330000     0.8908400000    -1.8539220000 
 H        2.3260190000     1.6473540000    -3.0672470000 
 H        4.6810140000     1.3333920000    -2.8877220000 
 H        7.3801220000     0.1254000000    -1.4473710000 
*
