! RI PBE def2-SVP def2-SVP/J NBO PAL2
% maxcore 2000
% output
    # printlevel mini
    print[ P_Basis ] 0
    print[ P_SCFInfo ] 1
    print[ P_SCFIterInfo ] 1
    print[ P_OrbEn ] 0
    print[ P_Cartesian ] 0
end
*xyz 0 1
 N        1.7885350000     0.5482140000     0.2388410000 
 C        3.0604840000    -0.0852460000    -0.0521390000 
 C        2.9334990000    -1.2149090000    -1.0317270000 
 C        1.7975510000    -1.5275570000    -1.6479800000 
 C        4.1821220000    -2.0246850000    -1.2018610000 
 N        4.3422980000    -2.6291570000    -2.4069260000 
 O        4.9975190000    -2.1390280000    -0.3067320000 
 H        1.9366690000     1.4044840000     0.7558040000 
 H        1.2208250000    -0.0550680000     0.8222830000 
 H        3.5910870000    -0.4812370000     0.8240270000 
 H        3.7308920000     0.6682100000    -0.4825630000 
 H        0.9084860000    -0.9295240000    -1.4865010000 
 H        1.7183210000    -2.3875330000    -2.3028510000 
 H        3.7836760000    -2.3639720000    -3.1965280000 
 H        5.1990260000    -3.1318920000    -2.5621350000 
*
