! RI PBE def2-SVP def2-SVP/J NBO PAL2
% maxcore 2000
% output
    # printlevel mini
    print[ P_Basis ] 0
    print[ P_SCFInfo ] 1
    print[ P_SCFIterInfo ] 1
    print[ P_OrbEn ] 0
    print[ P_Cartesian ] 0
end
*xyz 0 1
 N        1.3019620000     0.6122490000     0.1638000000 
 C        1.9523150000    -0.6718210000     0.3980390000 
 C        2.9292090000    -0.5958400000     1.5385370000 
 C        2.4941060000    -0.3805600000     2.9143160000 
 C        1.2427510000    -0.0909880000     3.2649000000 
 N        4.1495110000    -0.7714320000     1.1885860000 
 O        5.0405400000    -0.7066820000     2.2416040000 
 H        0.6441520000     0.5338390000    -0.6017130000 
 H        1.9914150000     1.3036400000    -0.1059830000 
 H        2.5023170000    -1.0642910000    -0.4661700000 
 H        1.1752170000    -1.4003150000     0.6531240000 
 H        3.2621800000    -0.4776910000     3.6722270000 
 H        0.4653160000     0.0599500000     2.5256630000 
 H        0.9769140000     0.0350840000     4.3081100000 
 H        5.8826870000    -0.8800430000     1.8131900000 
*
