! RI PBE def2-SVP def2-SVP/J NBO PAL2
% maxcore 2000
% output
    # printlevel mini
    print[ P_Basis ] 0
    print[ P_SCFInfo ] 1
    print[ P_SCFIterInfo ] 1
    print[ P_OrbEn ] 0
    print[ P_Cartesian ] 0
end
*xyz 0 1
 N        1.2108030000    -0.5781000000     0.2408960000 
 C        2.2698120000     0.2651610000    -0.2937680000 
 C        2.7224040000     1.2344580000     0.6909740000 
 C        3.0545540000     2.0605720000     1.5002770000 
 C        3.4040940000     3.0496090000     2.5065160000 
 N        4.6891770000     3.4770000000     2.4383700000 
 O        2.6061700000     3.4542750000     3.3241710000 
 H        0.8512950000    -1.1834910000    -0.4863930000 
 H        0.4433150000    -0.0074230000     0.5729830000 
 H        1.9927420000     0.8286530000    -1.1998480000 
 H        3.1145350000    -0.3734240000    -0.5742530000 
 H        5.3366100000     3.0846820000     1.7801900000 
 H        5.0074890000     4.1402280000     3.1233960000 
*
