! RI PBE def2-SVP def2-SVP/J NBO PAL2
% maxcore 2000
% output
    # printlevel mini
    print[ P_Basis ] 0
    print[ P_SCFInfo ] 1
    print[ P_SCFIterInfo ] 1
    print[ P_OrbEn ] 0
    print[ P_Cartesian ] 0
end
*xyz 0 1
 N        2.3305150000     1.0301420000    -1.3334020000 
 C        2.2205400000     0.4375840000    -0.0086260000 
 C        3.0430170000    -0.8377520000     0.0941880000 
 C        4.5281180000    -0.6731830000    -0.2375020000 
 C        5.2311500000     0.2930150000     0.6491310000 
 N        6.1096320000    -0.1164900000     1.4635910000 
 O        6.6509110000     0.9246770000     2.2044840000 
 H        1.8481090000     1.9184990000    -1.3728820000 
 H        1.9004470000     0.4299630000    -2.0274660000 
 H        1.1858030000     0.2061940000     0.2875530000 
 H        2.5887580000     1.1707180000     0.7158130000 
 H        2.6207930000    -1.5892460000    -0.5838000000 
 H        2.9374680000    -1.2416760000     1.1059990000 
 H        4.6189740000    -0.3217520000    -1.2698000000 
 H        5.0304170000    -1.6399220000    -0.1610100000 
 H        4.9913260000     1.3567560000     0.5928890000 
 H        7.2980020000     0.4798720000     2.7582180000 
*
