! RI PBE def2-SVP def2-SVP/J NBO PAL2
% maxcore 2000
% output
    # printlevel mini
    print[ P_Basis ] 0
    print[ P_SCFInfo ] 1
    print[ P_SCFIterInfo ] 1
    print[ P_OrbEn ] 0
    print[ P_Cartesian ] 0
end
*xyz 0 1
 N        2.6274530000    -1.1188960000     0.8417140000 
 C        2.1245070000    -0.1367140000    -0.1164960000 
 C        2.8716570000     1.1848800000    -0.0155930000 
 C        4.3979730000     1.0727340000    -0.0165380000 
 C        4.9361910000     0.3458920000    -1.2337010000 
 N        5.0076440000    -1.0009270000    -1.0880090000 
 O        5.2758660000     0.9255510000    -2.2458600000 
 H        2.0680370000    -1.9624420000     0.8109150000 
 H        2.5588230000    -0.7601970000     1.7876030000 
 H        1.0497350000     0.0642260000    -0.0048710000 
 H        2.2627990000    -0.5557120000    -1.1178620000 
 H        2.5694140000     1.7028230000     0.9022090000 
 H        2.5526750000     1.8204200000    -0.8464830000 
 H        4.7316880000     0.5629580000     0.8901730000 
 H        4.8315000000     2.0732750000    -0.0254010000 
 H        4.5043070000    -1.4309750000    -0.3217590000 
 H        5.2437500000    -1.5450160000    -1.9006300000 
*
