! RI PBE def2-SVP def2-SVP/J NBO PAL2
% maxcore 2000
% output
    # printlevel mini
    print[ P_Basis ] 0
    print[ P_SCFInfo ] 1
    print[ P_SCFIterInfo ] 1
    print[ P_OrbEn ] 0
    print[ P_Cartesian ] 0
end
*xyz 0 1
 N        0.9411500000     0.2622380000    -0.3572190000 
 C        2.3247420000     0.0237330000    -0.0289110000 
 C        2.6456100000    -0.4483490000     1.3738480000 
 C        1.7463810000    -0.7070300000     2.3097450000 
 C        2.9651810000    -0.9737330000    -0.9788350000 
 O        2.0910270000    -1.8698060000    -1.4558020000 
 O        4.1365690000    -0.9997000000    -1.2367680000 
 H        0.5320840000     0.9137400000     0.3002980000 
 H        0.4059760000    -0.5963330000    -0.3262860000 
 H        2.8862340000     0.9500140000    -0.1945480000 
 H        3.7058650000    -0.5657830000     1.5839860000 
 H        0.6822070000    -0.6014620000     2.1265550000 
 H        2.0447650000    -1.0333410000     3.2986090000 
 H        2.5952090000    -2.4807870000    -2.0112730000 
*
