! RI PBE def2-SVP def2-SVP/J NBO PAL2
% maxcore 2000
% output
    # printlevel mini
    print[ P_Basis ] 0
    print[ P_SCFInfo ] 1
    print[ P_SCFIterInfo ] 1
    print[ P_OrbEn ] 0
    print[ P_Cartesian ] 0
end
*xyz 0 1
 N        3.8412270000    -0.2407800000     1.0389770000 
 C        2.6381500000    -0.0531970000     0.2588800000 
 C        2.9036970000     0.3268430000    -1.1558030000 
 C        4.1090700000     0.4105370000    -1.7134670000 
 C        4.3383820000     0.7999560000    -3.1094650000 
 O        3.2111120000     1.0794450000    -3.7965370000 
 O        5.4280010000     0.8725350000    -3.6196440000 
 H        3.6228670000    -0.6171080000     1.9512500000 
 H        4.3191060000     0.6407360000     1.1802800000 
 H        1.9372850000     0.6924050000     0.6733610000 
 H        2.0777710000    -0.9971410000     0.2500660000 
 H        2.0276130000     0.5575550000    -1.7554890000 
 H        5.0064800000     0.1729410000    -1.1561120000 
 H        3.4990470000     1.3160630000    -4.6882090000 
*
