! RI PBE def2-SVP def2-SVP/J NBO PAL2
% maxcore 2000
% output
    # printlevel mini
    print[ P_Basis ] 0
    print[ P_SCFInfo ] 1
    print[ P_SCFIterInfo ] 1
    print[ P_OrbEn ] 0
    print[ P_Cartesian ] 0
end
*xyz 0 1
 N        1.7487990000    -0.3054830000     0.6195410000 
 C        3.1146860000    -0.1685000000     0.1534240000 
 C        3.4233780000    -1.1004710000    -0.9832270000 
 C        2.5210360000    -1.8787580000    -1.5737620000 
 C        4.8382390000    -1.0843650000    -1.4212750000 
 O        5.1164480000    -1.9324380000    -2.4268720000 
 O        5.6820120000    -0.3734760000    -0.9344890000 
 H        1.5123460000     0.4579270000     1.2385350000 
 H        1.6365240000    -1.1623820000     1.1480330000 
 H        3.8782790000    -0.3187900000     0.9298260000 
 H        3.2629430000     0.8581110000    -0.1978200000 
 H        1.4873700000    -1.8488770000    -1.2508020000 
 H        2.7951310000    -2.5344920000    -2.3894470000 
 H        6.0568100000    -1.8166060000    -2.6188550000 
*
