! RI PBE def2-SVP def2-SVP/J NBO PAL2
% maxcore 2000
% output
    # printlevel mini
    print[ P_Basis ] 0
    print[ P_SCFInfo ] 1
    print[ P_SCFIterInfo ] 1
    print[ P_OrbEn ] 0
    print[ P_Cartesian ] 0
end
*xyz 0 1
 N        0.9515090000    -0.1810670000     0.1821170000 
 C        2.3741830000     0.0053750000    -0.0556400000 
 C        2.8684320000     1.2273060000     0.5536150000 
 C        3.2807540000     2.2525280000     1.0281150000 
 C        3.8420370000     3.4503730000     1.5923770000 
 O        2.8948040000     4.2731190000     2.0676450000 
 O        5.0177790000     3.6954670000     1.6365410000 
 H        0.6320000000    -1.0221750000    -0.2814330000 
 H        0.4257740000     0.5964280000    -0.1970730000 
 H        2.6650780000     0.0340290000    -1.1185430000 
 H        2.9159780000    -0.8381090000     0.3862190000 
 H        3.3604730000     5.0424150000     2.4264810000 
*
