! RI PBE def2-SVP def2-SVP/J NBO PAL2
% maxcore 2000
% output
    # printlevel mini
    print[ P_Basis ] 0
    print[ P_SCFInfo ] 1
    print[ P_SCFIterInfo ] 1
    print[ P_OrbEn ] 0
    print[ P_Cartesian ] 0
end
*xyz 0 1
 N        2.7682340000     0.3991300000     1.4736390000 
 C        2.3593260000    -0.0530840000     0.1504630000 
 C        3.1093010000     0.7045340000    -0.9350630000 
 C        4.6122650000     0.5036180000    -0.8752600000 
 C        5.0580560000    -0.8394940000    -1.3732530000 
 O        6.3875460000    -1.0011180000    -1.2388790000 
 O        4.3570280000    -1.6920360000    -1.8502640000 
 H        2.4092410000    -0.2151090000     2.1924630000 
 H        2.4011260000     1.3238070000     1.6644910000 
 H        1.2792760000     0.0460470000    -0.0335400000 
 H        2.5943030000    -1.1171390000     0.0663850000 
 H        2.8941710000     1.7744530000    -0.8366060000 
 H        2.7312700000     0.3929410000    -1.9120610000 
 H        4.9708740000     0.6186320000     0.1519880000 
 H        5.1445150000     1.2538880000    -1.4687570000 
 H        6.5927770000    -1.8794810000    -1.5884780000 
*
