! RI PBE def2-SVP def2-SVP/J NBO PAL2
% maxcore 2000
% output
    # printlevel mini
    print[ P_Basis ] 0
    print[ P_SCFInfo ] 1
    print[ P_SCFIterInfo ] 1
    print[ P_OrbEn ] 0
    print[ P_Cartesian ] 0
end
*xyz 0 1
 N        1.6160060000    -0.2853890000     1.2087240000 
 C        2.5334600000     0.0720690000     0.1356960000 
 C        2.9078020000    -1.1367260000    -0.6518530000 
 C        4.1654360000    -1.5319590000    -0.8266720000 
 N        4.5624370000    -2.6424420000    -1.5537090000 
 C        5.8531210000    -3.0380340000    -1.7190280000 
 O        6.1935430000    -4.0074280000    -2.3497120000 
 H        1.2926830000     0.5398670000     1.6974500000 
 H        2.0795980000    -0.8800150000     1.8845900000 
 H        3.4517550000     0.5792440000     0.4722640000 
 H        2.0078870000     0.7808380000    -0.5152810000 
 H        2.0874350000    -1.7114220000    -1.0754600000 
 H        4.9913060000    -0.9749850000    -0.3931600000 
 H        3.8621960000    -3.2170650000    -2.0006230000 
 H        6.5675330000    -2.3665510000    -1.2072160000 
*
