! RI PBE def2-SVP def2-SVP/J NBO PAL2
% maxcore 2000
% output
    # printlevel mini
    print[ P_Basis ] 0
    print[ P_SCFInfo ] 1
    print[ P_SCFIterInfo ] 1
    print[ P_OrbEn ] 0
    print[ P_Cartesian ] 0
end
*xyz 0 1
 N        1.3311670000     0.3748520000    -0.9512850000 
 C        2.0844750000     0.7718970000     0.2279420000 
 C        3.5701640000     0.8104100000    -0.0878050000 
 C        4.4721360000     1.1138370000     1.1024500000 
 N        5.9000560000     1.0570270000     0.7918770000 
 C        4.2115710000     2.4855390000     1.7153250000 
 O        5.1044790000     2.7430460000     2.7644340000 
 H        0.3362680000     0.3987970000    -0.7672850000 
 H        1.5596200000    -0.5771330000    -1.2120640000 
 H        1.9214360000     0.1182560000     1.1012420000 
 H        1.7412030000     1.7690130000     0.5174990000 
 H        3.8655970000    -0.1623130000    -0.5019620000 
 H        3.7444700000     1.5466910000    -0.8814670000 
 H        4.2968870000     0.3708160000     1.8899320000 
 H        6.0934060000     1.5502320000    -0.0733610000 
 H        6.2140730000     0.1033920000     0.6701110000 
 H        3.1982060000     2.5435980000     2.1197370000 
 H        4.2945970000     3.2499030000     0.9226100000 
 H        5.9389790000     2.3470110000     2.4706510000 
*
