! RI PBE def2-SVP def2-SVP/J NBO PAL2
% maxcore 2000
% output
    # printlevel mini
    print[ P_Basis ] 0
    print[ P_SCFInfo ] 1
    print[ P_SCFIterInfo ] 1
    print[ P_OrbEn ] 0
    print[ P_Cartesian ] 0
end
*xyz 0 1
 N        1.0970240000     0.1932080000     0.0620990000 
 C        2.4265850000     0.0573010000    -0.0680870000 
 C        3.1215600000    -0.7916540000    -0.8844930000 
 C        2.4481360000    -1.7225740000    -1.7803970000 
 O        2.9875070000    -2.5003420000    -2.5282950000 
 C        4.5406510000    -0.7612850000    -0.8545940000 
 C        5.7431770000    -0.7440080000    -0.8375650000 
 H        0.7222600000     0.8627290000     0.7058590000 
 H        0.4461380000    -0.3564510000    -0.4671140000 
 H        3.0011070000     0.7206160000     0.5703200000 
 H        1.3351030000    -1.6860230000    -1.7456510000 
 H        6.8069030000    -0.7348770000    -0.8292200000 
*
