! RI PBE def2-SVP def2-SVP/J NBO PAL2
% maxcore 2000
% output
    # printlevel mini
    print[ P_Basis ] 0
    print[ P_SCFInfo ] 1
    print[ P_SCFIterInfo ] 1
    print[ P_OrbEn ] 0
    print[ P_Cartesian ] 0
end
*xyz 0 1
 N        1.5476870000     0.6378470000    -0.6836040000 
 C        2.8222720000     0.5492800000    -0.2259710000 
 C        3.2644660000     0.8852610000     1.0201360000 
 C        2.4284570000     1.3994890000     2.0722250000 
 O        2.8172700000     1.6992600000     3.1805990000 
 C        3.7583900000     0.0485490000    -1.1813280000 
 C        4.5313640000    -0.3741260000    -1.9977160000 
 H        0.8057620000     0.9762390000    -0.1014740000 
 H        1.3350260000     0.3623350000    -1.6226450000 
 H        4.3159210000     0.7586500000     1.2391330000 
 H        1.3472830000     1.5239060000     1.8299410000 
 H        5.2293920000    -0.7470990000    -2.7103090000 
*
