! RI PBE def2-SVP def2-SVP/J NBO PAL2
% maxcore 2000
% output
    # printlevel mini
    print[ P_Basis ] 0
    print[ P_SCFInfo ] 1
    print[ P_SCFIterInfo ] 1
    print[ P_OrbEn ] 0
    print[ P_Cartesian ] 0
end
*xyz 0 1
 N        1.2164310000    -0.3512070000    -0.8540830000 
 C        2.4048170000    -0.0297260000    -0.0711870000 
 C        2.2030910000     1.0825620000     0.9693190000 
 C        3.4752180000     1.4992240000     1.6843790000 
 O        3.2561450000     2.5211610000     2.6336370000 
 C        2.9093820000    -1.2466940000     0.5607950000 
 C        3.3101550000    -2.2355660000     1.1100930000 
 H        0.8346900000     0.4957730000    -1.2587870000 
 H        0.5037680000    -0.7467100000    -0.2519050000 
 H        3.1709070000     0.3072610000    -0.7824600000 
 H        1.4622320000     0.7592280000     1.7070980000 
 H        1.7829330000     1.9497050000     0.4433200000 
 H        4.2365080000     1.8009190000     0.9495520000 
 H        3.8832190000     0.6540620000     2.2417590000 
 H        2.9344950000     3.3001670000     2.1730650000 
 H        3.6688990000    -3.1180590000     1.5849060000 
*
