! RI PBE def2-SVP def2-SVP/J NBO PAL2
% maxcore 2000
% output
    # printlevel mini
    print[ P_Basis ] 0
    print[ P_SCFInfo ] 1
    print[ P_SCFIterInfo ] 1
    print[ P_OrbEn ] 0
    print[ P_Cartesian ] 0
end
*xyz 0 1
 N        2.9885550000    -0.7850890000    -1.9492390000 
 C        3.6083480000    -0.7134710000    -0.6326460000 
 C        3.0853670000     0.4577970000     0.1256850000 
 C        3.8747200000     1.4142510000     0.5928340000 
 O        3.3901220000     2.4746420000     1.2897930000 
 C        4.2697300000     3.4139180000     1.7128150000 
 C        3.8858800000     4.4858110000     2.3876740000 
 H        3.2979660000    -1.6094030000    -2.4487040000 
 H        3.2467540000     0.0231570000    -2.5018950000 
 H        4.7091470000    -0.6671460000    -0.6522480000 
 H        3.3460880000    -1.6358210000    -0.1010990000 
 H        2.0124780000     0.5238220000     0.2767970000 
 H        4.9542510000     1.4017980000     0.4531130000 
 H        5.3096600000     3.2213700000     1.4583590000 
 H        2.8457960000     4.6601520000     2.6309850000 
 H        4.6257470000     5.2061020000     2.7052770000 
*
