! RI PBE def2-SVP def2-SVP/J NBO PAL2
% maxcore 2000
% output
    # printlevel mini
    print[ P_Basis ] 0
    print[ P_SCFInfo ] 1
    print[ P_SCFIterInfo ] 1
    print[ P_OrbEn ] 0
    print[ P_Cartesian ] 0
end
*xyz 0 1
 N        1.0030330000    -0.1265510000     0.0765550000 
 C        2.4338630000     0.1518040000    -0.0541720000 
 C        3.0032820000    -0.4010000000    -1.3636310000 
 C        2.3045050000     0.2048470000    -2.5875610000 
 O        0.9522490000    -0.1499480000    -2.6922390000 
 C        4.4731110000    -0.1343420000    -1.4245710000 
 C        5.4193900000    -1.0610470000    -1.4761050000 
 H        0.6039730000     0.3943890000     0.8466780000 
 H        0.8497050000    -1.1093390000     0.2705230000 
 H        3.0248370000    -0.2378460000     0.7858970000 
 H        2.5609250000     1.2399710000    -0.0527540000 
 H        2.8393320000    -1.4860500000    -1.3894880000 
 H        2.8043740000    -0.1458510000    -3.4947550000 
 H        2.4309980000     1.3008960000    -2.5529770000 
 H        0.5803010000    -0.0293900000    -1.8004500000 
 H        4.7644390000     0.9161380000    -1.4323530000 
 H        5.1768560000    -2.1194880000    -1.4735180000 
 H        6.4697160000    -0.7979920000    -1.5267100000 
*
