! RI PBE def2-SVP def2-SVP/J NBO PAL2
% maxcore 2000
% output
    # printlevel mini
    print[ P_Basis ] 0
    print[ P_SCFInfo ] 1
    print[ P_SCFIterInfo ] 1
    print[ P_OrbEn ] 0
    print[ P_Cartesian ] 0
end
*xyz 0 1
 N        0.9226640000    -0.0652020000     0.0260380000 
 C        2.3835750000    -0.0759140000    -0.0144860000 
 C        2.8956330000    -0.5291270000    -1.3886430000 
 C        2.4054400000     0.3870690000    -2.5235050000 
 O        1.0242800000     0.2936260000    -2.7287350000 
 C        4.3484260000    -0.5923690000    -1.3751620000 
 C        5.5491680000    -0.6102680000    -1.3647930000 
 H        0.5905220000     0.4471850000     0.8325010000 
 H        0.5585560000    -1.0079050000     0.1006890000 
 H        2.8358300000    -0.7055550000     0.7620730000 
 H        2.7348010000     0.9452860000     0.1583100000 
 H        2.5057390000    -1.5352660000    -1.5948120000 
 H        2.8986540000     0.0987530000    -3.4544930000 
 H        2.7184570000     1.4176940000    -2.2928330000 
 H        0.6221360000     0.3646000000    -1.8449930000 
 H        6.6131480000    -0.6358160000    -1.3612190000 
*
