! RI PBE def2-SVP def2-SVP/J NBO PAL2
% maxcore 2000
% output
    # printlevel mini
    print[ P_Basis ] 0
    print[ P_SCFInfo ] 1
    print[ P_SCFIterInfo ] 1
    print[ P_OrbEn ] 0
    print[ P_Cartesian ] 0
end
*xyz 0 1
 N        0.7667080000    -0.9774380000     1.8595140000 
 C        1.7408040000     0.0191680000     1.4529850000 
 C        2.2836350000    -0.1251200000     0.0346450000 
 C        3.2966940000     0.9314670000    -0.3377750000 
 O        4.4471510000     0.7565530000     0.4688460000 
 C        5.4594950000     1.6200920000     0.2810360000 
 C        5.5265740000     2.6356490000    -0.5754250000 
 H       -0.0204570000    -0.9910000000     1.2218230000 
 H        1.1760150000    -1.9036950000     1.8392040000 
 H        2.5717940000    -0.0080540000     2.1622410000 
 H        1.2812610000     1.0082040000     1.5621470000 
 H        1.4549140000    -0.0667510000    -0.6806830000 
 H        2.7390360000    -1.1140760000    -0.0887470000 
 H        2.8899690000     1.9392520000    -0.1758640000 
 H        3.5795820000     0.8515860000    -1.3948140000 
 H        6.2804200000     1.3857430000     0.9508460000 
 H        4.7293160000     2.8986310000    -1.2566730000 
 H        6.4251890000     3.2361100000    -0.5966940000 
*
