! RI PBE def2-SVP def2-SVP/J NBO PAL2
% maxcore 2000
% output
    # printlevel mini
    print[ P_Basis ] 0
    print[ P_SCFInfo ] 1
    print[ P_SCFIterInfo ] 1
    print[ P_OrbEn ] 0
    print[ P_Cartesian ] 0
end
*xyz 0 1
 N        1.0467960000     0.0966290000    -0.0794950000 
 C        2.3837400000    -0.0139390000     0.0935860000 
 C        3.0466260000    -1.0052920000     0.7357940000 
 C        2.3782680000    -2.1749960000     1.3954410000 
 O        2.4570860000    -3.3719750000     0.6483260000 
 C        4.4642440000    -0.9494570000     0.7523360000 
 N        5.6178770000    -0.9167760000     0.7834710000 
 H        0.6683920000     0.9680060000    -0.3998460000 
 H        0.4162740000    -0.5077380000     0.4166870000 
 H        2.9604220000     0.7810410000    -0.3674890000 
 H        1.3300180000    -1.9254500000     1.6169150000 
 H        2.8573760000    -2.3884010000     2.3530110000 
 H        2.3292520000    -3.1570900000    -0.2795150000 
*
