! RI PBE def2-SVP def2-SVP/J NBO PAL2
% maxcore 2000
% output
    # printlevel mini
    print[ P_Basis ] 0
    print[ P_SCFInfo ] 1
    print[ P_SCFIterInfo ] 1
    print[ P_OrbEn ] 0
    print[ P_Cartesian ] 0
end
*xyz 0 1
 N        0.9466610000    -0.0781430000    -0.0236380000 
 C        2.2809800000    -0.1151370000    -0.1228040000 
 C        3.0329840000     0.5606900000    -1.0255860000 
 C        4.4634030000     0.4597520000    -1.0573180000 
 O        5.2007790000     1.0312420000    -1.8316160000 
 C        5.0694530000    -0.4337520000    -0.0363530000 
 N        5.5487130000    -1.1231940000     0.7501490000 
 H        0.4672830000    -0.6105950000     0.6770660000 
 H        0.3930040000     0.4837240000    -0.6456420000 
 H        2.7719910000    -0.7567360000     0.6042050000 
 H        2.5883490000     1.2124490000    -1.7697620000 
*
