! RI PBE def2-SVP def2-SVP/J NBO PAL2
% maxcore 2000
% output
    # printlevel mini
    print[ P_Basis ] 0
    print[ P_SCFInfo ] 1
    print[ P_SCFIterInfo ] 1
    print[ P_OrbEn ] 0
    print[ P_Cartesian ] 0
end
*xyz 0 1
 N        1.0705060000    -1.6632850000     0.1074410000 
 C        2.3690200000    -1.0132550000    -0.0240970000 
 C        3.0264290000    -1.4150510000    -1.3308590000 
 C        4.3724390000    -0.7610060000    -1.5517250000 
 O        5.2696680000    -1.1839820000    -0.5505050000 
 C        4.9555380000    -1.0923870000    -2.9188360000 
 N        6.3176820000    -0.5780050000    -2.9892080000 
 H        0.6186260000    -1.3768510000     0.9670930000 
 H        1.1931120000    -2.6676690000     0.1691740000 
 H        3.0609700000    -1.2261030000     0.8016830000 
 H        2.2024550000     0.0696280000    -0.0281620000 
 H        2.3539910000    -1.1616870000    -2.1574070000 
 H        3.1689920000    -2.5028710000    -1.3495750000 
 H        4.2441020000     0.3361370000    -1.4931480000 
 H        6.1480310000    -1.0220790000    -0.9282310000 
 H        4.2919200000    -0.7143660000    -3.7085590000 
 H        5.0014500000    -2.1813770000    -3.0159880000 
 H        6.3251960000     0.4160260000    -3.1812250000 
 H        6.8531620000    -1.0328270000    -3.7151740000 
*
