! RI PBE def2-SVP def2-SVP/J NBO PAL2
% maxcore 2000
% output
    # printlevel mini
    print[ P_Basis ] 0
    print[ P_SCFInfo ] 1
    print[ P_SCFIterInfo ] 1
    print[ P_OrbEn ] 0
    print[ P_Cartesian ] 0
end
*xyz 0 1
 N        1.0384620000    -0.0540470000    -0.2387240000 
 C        2.3389080000     0.1412440000    -0.0306720000 
 C        2.9569090000     1.1531560000     0.6519230000 
 C        2.2449960000     2.2385990000     1.2952620000 
 O        2.7566620000     3.1490870000     1.9065860000 
 C        4.4208080000     1.1039960000     0.7153020000 
 O        5.0989510000     0.2370170000     0.2085350000 
 H        0.7225960000    -0.8482030000    -0.7635010000 
 H        0.3398880000     0.5749380000     0.1156130000 
 H        2.9986480000    -0.6079520000    -0.4638550000 
 H        1.1330480000     2.2103400000     1.2054110000 
 H        4.8811250000     1.9373440000     1.2743190000 
*
