! RI PBE def2-SVP def2-SVP/J NBO PAL2
% maxcore 2000
% output
    # printlevel mini
    print[ P_Basis ] 0
    print[ P_SCFInfo ] 1
    print[ P_SCFIterInfo ] 1
    print[ P_OrbEn ] 0
    print[ P_Cartesian ] 0
end
*xyz 0 1
 N        1.0161210000    -0.5277950000     0.0589910000 
 C        2.3135000000    -0.1822280000     0.0074350000 
 C        2.9011550000     0.7780010000     0.7664330000 
 C        2.1438850000     1.5631920000     1.7915110000 
 O        0.8844010000     2.0442620000     1.3210840000 
 C        4.3107210000     1.0153720000     0.5656190000 
 O        4.9784450000     1.8464010000     1.1455690000 
 H        0.6383470000    -1.1716040000    -0.6100740000 
 H        0.3815430000     0.0988350000     0.5319030000 
 H        2.9241630000    -0.7415890000    -0.6975920000 
 H        2.7770100000     2.3805730000     2.1482450000 
 H        1.8983590000     0.9364020000     2.6546990000 
 H        1.0588850000     2.6845460000     0.6255930000 
 H        4.7805640000     0.3544520000    -0.1986950000 
*
