! RI PBE def2-SVP def2-SVP/J NBO PAL2
% maxcore 2000
% output
    # printlevel mini
    print[ P_Basis ] 0
    print[ P_SCFInfo ] 1
    print[ P_SCFIterInfo ] 1
    print[ P_OrbEn ] 0
    print[ P_Cartesian ] 0
end
*xyz 0 1
 N        2.0897230000    -0.6717410000     0.7200300000 
 C        2.5051050000     0.0077130000    -0.4987240000 
 C        3.9530290000     0.4472310000    -0.3806100000 
 C        4.5468040000     1.0125680000    -1.6599510000 
 O        5.9309080000     1.2969000000    -1.4922070000 
 C        3.9335760000     2.3277230000    -2.1047400000 
 O        4.0689030000     3.3330810000    -1.1300330000 
 H        1.1310920000    -0.9874670000     0.6419250000 
 H        2.1211000000    -0.0297790000     1.5036490000 
 H        1.8782340000     0.8761330000    -0.7499660000 
 H        2.4081460000    -0.7027590000    -1.3274060000 
 H        4.0502930000     1.1994480000     0.4094160000 
 H        4.5410080000    -0.4257100000    -0.0715140000 
 H        4.4119750000     0.2853210000    -2.4762330000 
 H        6.3370240000     0.5723900000    -1.0100780000 
 H        2.8656250000     2.2031950000    -2.2947930000 
 H        4.4101040000     2.6256960000    -3.0486260000 
 H        5.0043720000     3.3612680000    -0.9020500000 
*
