! RI PBE def2-SVP def2-SVP/J NBO PAL2
% maxcore 2000
% output
    # printlevel mini
    print[ P_Basis ] 0
    print[ P_SCFInfo ] 1
    print[ P_SCFIterInfo ] 1
    print[ P_OrbEn ] 0
    print[ P_Cartesian ] 0
end
*xyz 0 1
 N        0.9745240000    -0.0685330000    -0.2352490000 
 C        2.3959180000    -0.1050880000     0.0877700000 
 C        2.8999650000     1.3226770000     0.2725480000 
 N        2.2622120000     2.0409460000     1.3636540000 
 C        4.3933660000     1.4389510000     0.4424970000 
 C        5.2516460000     0.3722490000     0.9547790000 
 O        5.2251390000     0.6906490000    -0.4275290000 
 H        0.5654420000    -0.9910350000    -0.1676310000 
 H        0.8393040000     0.2416130000    -1.1904150000 
 H        3.0125100000    -0.6190990000    -0.6624370000 
 H        2.5066590000    -0.6448330000     1.0342960000 
 H        2.6567000000     1.8704450000    -0.6502270000 
 H        2.5233290000     1.6159220000     2.2477800000 
 H        1.2589020000     1.9176340000     1.2729420000 
 H        4.7226520000     2.4647680000     0.6023500000 
 H        4.8273310000    -0.5943030000     1.2130290000 
 H        6.1722110000     0.6297570000     1.4728320000 
*
