! RI PBE def2-SVP def2-SVP/J NBO PAL2
% maxcore 2000
% output
    # printlevel mini
    print[ P_Basis ] 0
    print[ P_SCFInfo ] 1
    print[ P_SCFIterInfo ] 1
    print[ P_OrbEn ] 0
    print[ P_Cartesian ] 0
end
*xyz 0 1
 N        1.0502390000     0.2468430000    -0.5579010000 
 C        1.8706110000    -0.5676550000     0.3166590000 
 C        2.3151960000     0.1018570000     1.6095620000 
 N        3.1211220000    -0.7904500000     2.4166980000 
 C        3.5875520000    -0.2220600000     3.6685840000 
 C        4.1775160000    -1.3248800000     4.5242970000 
 O        3.2455230000    -2.3560490000     4.7272280000 
 H        0.1912960000     0.5179950000    -0.0951390000 
 H        1.5314630000     1.1002710000    -0.8144290000 
 H        2.7552610000    -0.8865440000    -0.2475300000 
 H        1.3219120000    -1.4815320000     0.5619960000 
 H        1.4305810000     0.3824140000     2.1932440000 
 H        2.8392070000     1.0441650000     1.3649250000 
 H        3.9169600000    -1.1116350000     1.8750470000 
 H        2.7201630000     0.2010540000     4.1856390000 
 H        4.3201010000     0.5912550000     3.5355810000 
 H        4.4635640000    -0.9319510000     5.5032950000 
 H        5.0932700000    -1.7110910000     4.0463030000 
 H        2.7787720000    -2.4391970000     3.8844400000 
*
