! RI PBE def2-SVP def2-SVP/J NBO PAL2
% maxcore 2000
% output
    # printlevel mini
    print[ P_Basis ] 0
    print[ P_SCFInfo ] 1
    print[ P_SCFIterInfo ] 1
    print[ P_OrbEn ] 0
    print[ P_Cartesian ] 0
end
*xyz 0 1
 N        1.6546930000    -0.3880440000     1.1509160000 
 C        2.8202150000     0.0593760000     0.4028310000 
 C        3.0200870000    -0.8131750000    -0.8338720000 
 N        1.8424650000    -0.8407150000    -1.7004970000 
 C        4.2492870000    -0.4061660000    -1.6327620000 
 C        4.5995060000    -1.3852900000    -2.7441410000 
 O        3.6192500000    -1.4640360000    -3.7464630000 
 H        1.3535970000     0.3111760000     1.8160500000 
 H        1.8677670000    -1.2262600000     1.6779400000 
 H        3.7493170000     0.0692390000     0.9930230000 
 H        2.6405710000     1.0897850000     0.0757250000 
 H        3.1735860000    -1.8457850000    -0.4868030000 
 H        1.6823690000     0.0914770000    -2.0726930000 
 H        1.0319470000    -1.0582500000    -1.1287790000 
 H        5.1051110000    -0.3231990000    -0.9535470000 
 H        4.0894400000     0.5895010000    -2.0668790000 
 H        4.7874300000    -2.3755800000    -2.2961320000 
 H        5.5297810000    -1.0739070000    -3.2284640000 
 H        2.7661930000    -1.5127360000    -3.2791460000 
*
