! RI PBE def2-SVP def2-SVP/J NBO PAL2
% maxcore 2000
% output
    # printlevel mini
    print[ P_Basis ] 0
    print[ P_SCFInfo ] 1
    print[ P_SCFIterInfo ] 1
    print[ P_OrbEn ] 0
    print[ P_Cartesian ] 0
end
*xyz 0 1
 N        1.0735390000     0.0677720000    -0.0205170000 
 C        2.5229260000     0.0630100000    -0.0054260000 
 C        3.2044050000     0.9216120000    -1.0498030000 
 N        2.5073950000     1.5411510000    -1.9000720000 
 O        3.2849390000     2.2553540000    -2.7904350000 
 C        3.0306960000     0.4361190000     1.3145640000 
 C        3.4638730000     0.7678360000     2.3826470000 
 H        0.7596110000    -0.0743780000    -0.9742810000 
 H        0.7421860000     0.9876960000     0.2473040000 
 H        2.8534710000    -0.9701270000    -0.1918950000 
 H        4.2942240000     0.9750170000    -1.0537470000 
 H        2.6351830000     2.6748200000    -3.3614540000 
 H        3.8396520000     1.0538290000     3.3366250000 
*
