! RI PBE def2-SVP def2-SVP/J NBO PAL2
% maxcore 2000
% output
    # printlevel mini
    print[ P_Basis ] 0
    print[ P_SCFInfo ] 1
    print[ P_SCFIterInfo ] 1
    print[ P_OrbEn ] 0
    print[ P_Cartesian ] 0
end
*xyz 0 1
 N        1.7806670000     0.0294390000    -1.0611580000 
 C        2.0014540000     0.9335170000     0.0499080000 
 C        3.1860450000     0.5941420000     0.9218710000 
 N        2.9486420000     0.2898070000     2.1412570000 
 O        4.0778630000    -0.0296250000     2.8496690000 
 C        4.4826390000     0.6016110000     0.3336320000 
 C        5.5475930000     0.6319000000    -0.2238650000 
 H        2.5766440000     0.0313240000    -1.6876910000 
 H        1.6648010000    -0.9196080000    -0.7268270000 
 H        2.1337880000     1.9434350000    -0.3494020000 
 H        1.1183810000     0.9471950000     0.6915800000 
 H        3.7346510000    -0.2254770000     3.7266280000 
 H        6.5022430000     0.6543310000    -0.6948910000 
*
