! RI PBE def2-SVP def2-SVP/J NBO PAL2
% maxcore 2000
% output
    # printlevel mini
    print[ P_Basis ] 0
    print[ P_SCFInfo ] 1
    print[ P_SCFIterInfo ] 1
    print[ P_OrbEn ] 0
    print[ P_Cartesian ] 0
end
*xyz 0 1
 N        0.8381260000     0.7807600000     0.4034570000 
 C        2.0909020000     0.0477970000     0.3000440000 
 C        3.3149090000     0.9054240000     0.6065610000 
 O        3.3644520000     2.0766310000    -0.1862600000 
 C        2.0700140000    -1.1725500000     1.1770670000 
 C        1.3026140000    -2.3825450000     0.7511190000 
 C        2.8003690000    -2.4131960000     0.7597340000 
 H        0.9695820000     1.7121700000     0.0224130000 
 H        0.5888090000     0.8978860000     1.3795520000 
 H        2.1826010000    -0.2945120000    -0.7430000000 
 H        4.2310620000     0.3102460000     0.4941400000 
 H        3.2673470000     1.2507120000     1.6441130000 
 H        3.5602260000     1.8197860000    -1.0911730000 
 H        2.0704330000    -0.9547590000     2.2431640000 
 H        0.7975150000    -2.3299510000    -0.2055190000 
 H        0.7743830000    -2.9497620000     1.5070480000 
 H        3.3117000000    -2.3975300000    -0.1960500000 
 H        3.2995370000    -2.9976970000     1.5224010000 
*
