! RI PBE def2-SVP def2-SVP/J NBO PAL2
% maxcore 2000
% output
    # printlevel mini
    print[ P_Basis ] 0
    print[ P_SCFInfo ] 1
    print[ P_SCFIterInfo ] 1
    print[ P_OrbEn ] 0
    print[ P_Cartesian ] 0
end
*xyz 0 1
 N        1.0641430000    -0.3385160000    -0.8848540000 
 C        1.9096600000    -0.5728080000     0.2791730000 
 C        3.0516090000    -1.5215030000    -0.0958090000 
 O        2.5340730000    -2.5654480000    -0.8857050000 
 C        4.2329800000    -0.8603540000    -0.7827960000 
 C        4.2363440000     0.5303000000    -1.3467150000 
 C        5.0305260000     0.2145320000    -0.1151900000 
 H        1.4506460000     0.3589220000    -1.5058310000 
 H        0.1353360000    -0.0455390000    -0.6193150000 
 H        2.3039040000     0.3427970000     0.7402360000 
 H        1.2953230000    -1.0720080000     1.0317790000 
 H        3.4277700000    -1.9800090000     0.8269580000 
 H        1.7873740000    -2.1625130000    -1.3595960000 
 H        4.8095090000    -1.5861500000    -1.3466190000 
 H        3.3648270000     1.1608180000    -1.2147590000 
 H        4.7665570000     0.7040530000    -2.2749400000 
 H        4.6609910000     0.6068490000     0.8260630000 
 H        6.1104190000     0.1775660000    -0.1862820000 
*
