! RI PBE def2-SVP def2-SVP/J NBO PAL2
% maxcore 2000
% output
    # printlevel mini
    print[ P_Basis ] 0
    print[ P_SCFInfo ] 1
    print[ P_SCFIterInfo ] 1
    print[ P_OrbEn ] 0
    print[ P_Cartesian ] 0
end
*xyz 0 1
 N        1.0880350000    -0.9655230000     0.0010170000 
 C        2.4343670000    -0.4301720000    -0.1060630000 
 C        3.4244290000    -1.0485670000     0.8746180000 
 O        3.0286150000    -0.8871480000     2.2212680000 
 C        2.9528600000    -0.5319710000    -1.5243670000 
 C        2.5420170000    -1.6246350000    -2.4270600000 
 N        2.0572970000    -0.2626480000    -2.6361980000 
 H        0.6754140000    -0.6703710000     0.8763290000 
 H        1.1197950000    -1.9786750000     0.0377430000 
 H        2.3621510000     0.6425460000     0.1273310000 
 H        4.4304290000    -0.6407980000     0.7046410000 
 H        3.4774790000    -2.1281490000     0.7025170000 
 H        3.1594510000     0.0318150000     2.4681320000 
 H        3.9498820000    -0.1178260000    -1.6559490000 
 H        1.8351250000    -2.3616740000    -2.0602250000 
 H        3.2340060000    -1.9928560000    -3.1766390000 
 H        1.1151390000    -0.2077380000    -2.2526950000 
*
