! RI PBE def2-SVP def2-SVP/J NBO PAL2
% maxcore 2000
% output
    # printlevel mini
    print[ P_Basis ] 0
    print[ P_SCFInfo ] 1
    print[ P_SCFIterInfo ] 1
    print[ P_OrbEn ] 0
    print[ P_Cartesian ] 0
end
*xyz 0 1
 N        0.8145800000    -0.1866890000     0.2211410000 
 C        2.2618110000    -0.1719060000     0.0857020000 
 C        3.0013600000     0.0478250000     1.4026110000 
 O        2.5902240000     1.2390250000     2.0446080000 
 C        2.7216840000    -1.4451600000    -0.5665610000 
 C        2.8825850000    -1.5591500000    -2.0084710000 
 O        4.0116140000    -1.4240230000    -1.1559820000 
 H        0.5380060000     0.5991620000     0.8004260000 
 H        0.5235970000    -1.0200410000     0.7225830000 
 H        2.5275490000     0.6522320000    -0.5903960000 
 H        4.0850550000     0.0363200000     1.2321360000 
 H        2.7622570000    -0.7652340000     2.0959830000 
 H        2.9807370000     1.9832560000     1.5794610000 
 H        2.5071820000    -2.3575240000    -0.0055170000 
 H        2.6626610000    -0.6954670000    -2.6307180000 
 H        2.7797790000    -2.5279240000    -2.4901040000 
*
