! RI PBE def2-SVP def2-SVP/J NBO PAL2
% maxcore 2000
% output
    # printlevel mini
    print[ P_Basis ] 0
    print[ P_SCFInfo ] 1
    print[ P_SCFIterInfo ] 1
    print[ P_OrbEn ] 0
    print[ P_Cartesian ] 0
end
*xyz 0 1
 N        1.3622240000    -0.4256090000    -0.6804780000 
 C        1.8765500000    -0.2883420000     0.6779230000 
 C        2.7968330000    -1.4646620000     0.9997760000 
 O        2.2368960000    -2.6560560000     0.5108170000 
 C        4.2159600000    -1.3193180000     0.4898800000 
 C        4.6978580000    -0.2799730000    -0.4166320000 
 O        4.9615750000    -0.2124350000     0.9737340000 
 H        1.9910140000    -0.0413440000    -1.3720960000 
 H        0.4672650000     0.0287850000    -0.7879970000 
 H        2.3966740000     0.6565970000     0.8761340000 
 H        1.0236880000    -0.3381440000     1.3579330000 
 H        2.8728240000    -1.5527620000     2.0905820000 
 H        1.7218080000    -2.3750490000    -0.2648700000 
 H        4.7587310000    -2.2638330000     0.4970670000 
 H        4.0246520000     0.4878960000    -0.7909330000 
 H        5.5618770000    -0.4776510000    -1.0468390000 
*
