! RI PBE def2-SVP def2-SVP/J NBO PAL2
% maxcore 2000
% output
    # printlevel mini
    print[ P_Basis ] 0
    print[ P_SCFInfo ] 1
    print[ P_SCFIterInfo ] 1
    print[ P_OrbEn ] 0
    print[ P_Cartesian ] 0
end
*xyz 0 1
 N        1.7499430000     0.9424080000     0.0498100000 
 C        2.6590450000    -0.0663560000     0.5691150000 
 C        2.9465100000     0.0941340000     2.0574900000 
 O        3.4374210000     1.3850940000     2.3682250000 
 C        2.1155490000    -1.4557810000     0.2472320000 
 C        3.0904540000    -2.5621040000     0.4754460000 
 C        2.8886650000    -3.6179640000     1.2513840000 
 H        2.0267830000     1.8488780000     0.4121400000 
 H        0.8135030000     0.7704030000     0.4022200000 
 H        3.6128320000     0.0549560000     0.0331670000 
 H        3.6351350000    -0.6863870000     2.4047200000 
 H        2.0130540000    -0.0145350000     2.6198410000 
 H        4.3433250000     1.4464240000     2.0547000000 
 H        1.8194370000    -1.4417220000    -0.8080130000 
 H        1.2043660000    -1.6367120000     0.8308860000 
 H        4.0347780000    -2.4789750000    -0.0618660000 
 H        1.9629350000    -3.7457690000     1.8044230000 
 H        3.6359460000    -4.3956820000     1.3580820000 
*
