! RI PBE def2-SVP def2-SVP/J NBO PAL2
% maxcore 2000
% output
    # printlevel mini
    print[ P_Basis ] 0
    print[ P_SCFInfo ] 1
    print[ P_SCFIterInfo ] 1
    print[ P_OrbEn ] 0
    print[ P_Cartesian ] 0
end
*xyz 0 1
 N        1.1365100000    -0.1891410000     0.1596320000 
 C        2.5372640000    -0.0023420000    -0.1756690000 
 C        2.8398840000    -0.1943640000    -1.6571680000 
 O        2.4304790000    -1.4686760000    -2.1145340000 
 C        2.9787020000     1.3768520000     0.3165540000 
 C        4.4096000000     1.6082080000     0.2267570000 
 C        5.5949340000     1.7877320000     0.1595820000 
 H        0.8167660000    -1.0581600000    -0.2546810000 
 H        0.5809560000     0.5463680000    -0.2668180000 
 H        3.1093600000    -0.7540400000     0.3842470000 
 H        3.9039390000    -0.0201020000    -1.8574500000 
 H        2.2667500000     0.5341970000    -2.2407880000 
 H        3.0674530000    -2.1186300000    -1.8073980000 
 H        2.6538050000     1.4828090000     1.3558050000 
 H        2.4506750000     2.1506920000    -0.2557770000 
 H        6.6446220000     1.9538950000     0.1037060000 
*
