! RI PBE def2-SVP def2-SVP/J NBO PAL2
% maxcore 2000
% output
    # printlevel mini
    print[ P_Basis ] 0
    print[ P_SCFInfo ] 1
    print[ P_SCFIterInfo ] 1
    print[ P_OrbEn ] 0
    print[ P_Cartesian ] 0
end
*xyz 0 1
 N        2.6751600000     0.7252430000    -1.2642150000 
 C        2.4479120000    -0.0918600000    -0.0762820000 
 C        3.0715310000    -1.4672510000    -0.2882290000 
 O        2.6291280000    -2.0013000000    -1.5080940000 
 C        4.6101520000    -1.4369740000    -0.2684440000 
 C        5.1717230000    -0.9851200000     0.9913140000 
 C        5.6096680000    -0.6073720000     2.0442500000 
 H        3.5576470000     1.2171190000    -1.2147110000 
 H        1.9511210000     1.4197610000    -1.3789980000 
 H        1.3704780000    -0.2325860000     0.0358040000 
 H        2.8264030000     0.3534710000     0.8509520000 
 H        2.7328100000    -2.1348980000     0.5099480000 
 H        2.5740220000    -1.2346940000    -2.1008170000 
 H        4.9648020000    -0.8004230000    -1.0870810000 
 H        4.9644030000    -2.4469290000    -0.4930830000 
 H        6.0086490000    -0.2803770000     2.9750860000 
*
