! RI PBE def2-SVP def2-SVP/J NBO PAL2
% maxcore 2000
% output
    # printlevel mini
    print[ P_Basis ] 0
    print[ P_SCFInfo ] 1
    print[ P_SCFIterInfo ] 1
    print[ P_OrbEn ] 0
    print[ P_Cartesian ] 0
end
*xyz 0 1
 N        2.3924580000    -0.0742530000    -1.5957460000 
 C        2.0616280000    -0.5074810000    -0.2499660000 
 C        2.3124420000     0.6107040000     0.7290020000 
 O        3.6959200000     0.8740600000     0.7576070000 
 C        4.0241270000     1.9794450000     1.5461150000 
 C        5.4961560000     2.1986060000     1.5920410000 
 C        6.4041160000     1.4352290000     1.0041740000 
 H        2.2779410000    -0.8316200000    -2.2565430000 
 H        3.3645830000     0.2084960000    -1.6258960000 
 H        2.6211020000    -1.3931710000     0.0899390000 
 H        0.9974990000    -0.7604790000    -0.2096510000 
 H        1.9599840000     0.3264450000     1.7319000000 
 H        1.7637070000     1.5089720000     0.4102090000 
 H        3.6466500000     1.8434690000     2.5748430000 
 H        3.5314220000     2.8876180000     1.1584670000 
 H        5.8039490000     3.0679780000     2.1684590000 
 H        6.1152260000     0.5641670000     0.4288500000 
 H        7.4607000000     1.6607160000     1.0842870000 
*
