! RI PBE def2-SVP def2-SVP/J NBO PAL2
% maxcore 2000
% output
    # printlevel mini
    print[ P_Basis ] 0
    print[ P_SCFInfo ] 1
    print[ P_SCFIterInfo ] 1
    print[ P_OrbEn ] 0
    print[ P_Cartesian ] 0
end
*xyz 0 1
 N        0.9474280000    -0.1157820000    -0.1305900000 
 C        2.2984650000    -0.0789080000    -0.1261710000 
 C        2.9291990000    -1.0940590000     0.7929850000 
 O        2.2179270000    -2.3140990000     0.8131830000 
 C        3.0347800000     0.8236640000    -0.8174970000 
 C        4.4430330000     0.8419510000    -0.7665000000 
 N        5.5984680000     0.8646990000    -0.7405020000 
 H        0.5190790000    -0.9571420000     0.2187340000 
 H        0.4321920000     0.4211630000    -0.8048660000 
 H        2.8906830000    -0.7029780000     1.8139820000 
 H        3.9807870000    -1.2295650000     0.5300280000 
 H        2.4604060000    -2.8210730000     0.0335170000 
 H        2.5563240000     1.5822990000    -1.4269920000 
*
