! RI PBE def2-SVP def2-SVP/J NBO PAL2
% maxcore 2000
% output
    # printlevel mini
    print[ P_Basis ] 0
    print[ P_SCFInfo ] 1
    print[ P_SCFIterInfo ] 1
    print[ P_OrbEn ] 0
    print[ P_Cartesian ] 0
end
*xyz 0 1
 N        1.0371460000    -1.6228140000    -0.8202270000 
 C        1.2567010000    -0.5498160000     0.1331090000 
 C        2.5282340000    -0.7925430000     0.9048840000 
 O        3.6165670000    -0.7174160000     0.0117240000 
 C        4.8543200000    -1.0170290000     0.6113830000 
 C        5.9300170000    -0.7604290000    -0.4132620000 
 O        5.9564830000     0.5866280000    -0.8195130000 
 H        0.2025510000    -1.4546080000    -1.3665920000 
 H        1.8166830000    -1.6638050000    -1.4653710000 
 H        0.4269780000    -0.5346520000     0.8465340000 
 H        1.3143740000     0.4526250000    -0.3199640000 
 H        2.4929900000    -1.7887830000     1.3680030000 
 H        2.6418650000    -0.0424600000     1.7012280000 
 H        4.8817600000    -2.0659380000     0.9424120000 
 H        5.0132620000    -0.3734610000     1.4892350000 
 H        5.7766210000    -1.4301620000    -1.2714430000 
 H        6.9076420000    -0.9867380000     0.0189260000 
 H        5.0522150000     0.8196130000    -1.0526550000 
*
