! RI PBE def2-SVP def2-SVP/J NBO PAL2
% maxcore 2000
% output
    # printlevel mini
    print[ P_Basis ] 0
    print[ P_SCFInfo ] 1
    print[ P_SCFIterInfo ] 1
    print[ P_OrbEn ] 0
    print[ P_Cartesian ] 0
end
*xyz 0 1
 N        2.2015770000    -0.7144200000    -1.0455720000 
 C        2.5959510000     0.4609600000    -0.2838710000 
 C        2.4792800000     1.7570000000    -1.0701410000 
 O        3.2670440000     1.6290780000    -2.2382330000 
 C        1.8004510000     0.5488830000     1.0081360000 
 C        2.0253600000    -0.6292070000     1.9278040000 
 O        1.2524870000    -0.4200470000     3.0964820000 
 H        2.6907160000    -0.7111820000    -1.9334390000 
 H        1.2105240000    -0.6633110000    -1.2613590000 
 H        3.6584690000     0.3367320000    -0.0361200000 
 H        2.8253440000     2.5984150000    -0.4537140000 
 H        1.4228940000     1.9323630000    -1.3250010000 
 H        3.1509300000     2.4123770000    -2.7791840000 
 H        0.7293310000     0.6169530000     0.7804120000 
 H        2.0648940000     1.4654490000     1.5451070000 
 H        3.0947790000    -0.7017610000     2.1741540000 
 H        1.7399160000    -1.5562850000     1.4193030000 
 H        1.3249420000    -1.1994950000     3.6510480000 
*
