! RI PBE def2-SVP def2-SVP/J NBO PAL2
% maxcore 2000
% output
    # printlevel mini
    print[ P_Basis ] 0
    print[ P_SCFInfo ] 1
    print[ P_SCFIterInfo ] 1
    print[ P_OrbEn ] 0
    print[ P_Cartesian ] 0
end
*xyz 0 1
 N        1.1811460000    -0.1029170000     0.1592720000 
 C        2.5262180000    -0.0926370000     0.0407840000 
 C        3.2148690000     0.2843510000     1.3324050000 
 O        2.4932620000     1.2575990000     2.0612210000 
 C        3.1700530000    -0.4574130000    -1.0993560000 
 C        4.5960650000    -0.4829380000    -1.2823960000 
 O        5.1478810000    -0.8240580000    -2.3090490000 
 H        0.7768090000     0.3621530000     0.9543000000 
 H        0.6051000000    -0.2528910000    -0.6492030000 
 H        4.2412560000     0.6016920000     1.1484980000 
 H        3.2503540000    -0.6015220000     1.9727380000 
 H        2.6336100000     2.1140240000     1.6477620000 
 H        2.5846970000    -0.7677680000    -1.9609830000 
 H        5.2144790000    -0.1603740000    -0.4178040000 
*
