! RI PBE def2-SVP def2-SVP/J NBO PAL2
% maxcore 2000
% output
    # printlevel mini
    print[ P_Basis ] 0
    print[ P_SCFInfo ] 1
    print[ P_SCFIterInfo ] 1
    print[ P_OrbEn ] 0
    print[ P_Cartesian ] 0
end
*xyz 0 1
 N        1.0723660000     0.5487630000     0.1193660000 
 C        2.5238100000     0.5205040000    -0.0118090000 
 C        3.1300540000     0.2157250000     1.3502660000 
 O        2.4881860000    -0.9251430000     1.8871740000 
 C        4.6236020000    -0.0276450000     1.2933650000 
 C        5.2324210000    -0.3574670000     2.6480240000 
 O        4.8768950000    -1.6327200000     3.1205630000 
 H        0.6114900000     0.4008600000    -0.7672590000 
 H        0.7513000000     1.4352750000     0.4878140000 
 H        2.9574750000     1.4457170000    -0.4145340000 
 H        2.7858670000    -0.2941790000    -0.6931700000 
 H        2.9430200000     1.0792450000     2.0136880000 
 H        1.5637030000    -0.8483890000     1.6014320000 
 H        5.1044070000     0.8728960000     0.8944800000 
 H        4.8320490000    -0.8505860000     0.6005750000 
 H        4.9515450000     0.4261020000     3.3709080000 
 H        6.3232850000    -0.3465110000     2.5731500000 
 H        3.9256450000    -1.7253460000     2.9824670000 
*
