! RI PBE def2-SVP def2-SVP/J NBO PAL2
% maxcore 2000
% output
    # printlevel mini
    print[ P_Basis ] 0
    print[ P_SCFInfo ] 1
    print[ P_SCFIterInfo ] 1
    print[ P_OrbEn ] 0
    print[ P_Cartesian ] 0
end
*xyz 0 1
 N        1.4142680000    -0.6545810000    -1.1404230000 
 C        2.2180980000    -0.4363130000    -0.1884460000 
 C        2.5159300000     0.9457190000     0.3446730000 
 O        2.0384100000     1.9334980000    -0.1372290000 
 N        2.8533220000    -1.4423460000     0.5230470000 
 C        3.1873790000    -2.6772400000    -0.1305280000 
 C        4.2583850000    -1.7331400000     0.2808850000 
 H        1.0207070000     0.2375160000    -1.4453620000 
 H        3.2014400000     0.9872660000     1.2139310000 
 H        2.9424400000    -2.7454590000    -1.1850500000 
 H        3.0172340000    -3.5736420000     0.4545830000 
 H        4.7567860000    -1.1777650000    -0.5081950000 
 H        4.8551000000    -1.9339240000     1.1632340000 
*
