! RI PBE def2-SVP def2-SVP/J NBO PAL2
% maxcore 2000
% output
    # printlevel mini
    print[ P_Basis ] 0
    print[ P_SCFInfo ] 1
    print[ P_SCFIterInfo ] 1
    print[ P_OrbEn ] 0
    print[ P_Cartesian ] 0
end
*xyz 0 1
 N        1.9810130000     1.2075020000    -1.4142450000 
 C        2.6110170000     0.7192430000    -0.2107660000 
 C        3.6463990000    -0.3283170000    -0.5484600000 
 O        3.6196340000    -0.9601090000    -1.5775900000 
 N        4.5520180000    -0.5845770000     0.4670110000 
 C        5.8989020000    -0.9945020000     0.1939630000 
 C        5.6166570000     0.3169600000     0.8407180000 
 H        1.0299350000     1.4992150000    -1.2400910000 
 H        1.9672620000     0.4586860000    -2.0980680000 
 H        1.9273370000     0.2272240000     0.5003220000 
 H        3.0906660000     1.5327860000     0.3441090000 
 H        6.2060410000    -0.9928860000    -0.8465820000 
 H        6.2723320000    -1.8173800000     0.7930670000 
 H        5.7544830000     1.2084030000     0.2359430000 
 H        5.7791040000     0.4469400000     1.9052500000 
*
