! RI PBE def2-SVP def2-SVP/J NBO PAL2
% maxcore 2000
% output
    # printlevel mini
    print[ P_Basis ] 0
    print[ P_SCFInfo ] 1
    print[ P_SCFIterInfo ] 1
    print[ P_OrbEn ] 0
    print[ P_Cartesian ] 0
end
*xyz 0 1
 N        2.0088760000    -1.2270220000    -0.4101360000 
 C        1.7066060000    -0.0736280000     0.4208100000 
 C        2.9415480000     0.6010330000     1.0006980000 
 O        2.8557650000     1.4171880000     1.8932400000 
 N        4.1063140000     0.2237650000     0.4092970000 
 C        5.3413880000     0.7348610000     0.7600310000 
 C        6.4918590000     0.3904340000     0.1899190000 
 H        1.3212350000    -1.3508190000    -1.1391280000 
 H        2.0326260000    -2.0788580000     0.1345270000 
 H        1.0392600000    -0.2764410000     1.2651270000 
 H        1.2105450000     0.6883480000    -0.1871590000 
 H        4.0098960000    -0.4680610000    -0.3238470000 
 H        5.2825340000     1.4603100000     1.5631280000 
 H        6.5450000000    -0.3347890000    -0.6146480000 
 H        7.4167370000     0.8383600000     0.5244420000 
*
