! RI PBE def2-SVP def2-SVP/J NBO PAL2
% maxcore 2000
% output
    # printlevel mini
    print[ P_Basis ] 0
    print[ P_SCFInfo ] 1
    print[ P_SCFIterInfo ] 1
    print[ P_OrbEn ] 0
    print[ P_Cartesian ] 0
end
*xyz 0 1
 N        1.5106480000     0.7873320000     0.9647680000 
 C        2.6532640000     0.1093210000     0.4045210000 
 C        3.2419190000     0.9133250000    -0.7190480000 
 O        2.6863080000     1.8057470000    -1.2929750000 
 O        4.4807400000     0.4646720000    -1.0236960000 
 C        5.1395760000     1.0535720000    -2.0750210000 
 C        6.3441020000     0.6372970000    -2.4204210000 
 H        0.8556780000     0.1338560000     1.3690440000 
 H        1.0384960000     1.3142550000     0.2398630000 
 H        2.4411780000    -0.8823250000    -0.0289570000 
 H        3.4332750000    -0.0488380000     1.1559150000 
 H        4.5929380000     1.8526770000    -2.5588990000 
 H        6.8419370000    -0.1680100000    -1.8952650000 
 H        6.8520620000     1.1111280000    -3.2485180000 
*
