! RI PBE def2-SVP def2-SVP/J NBO PAL2
% maxcore 2000
% output
    # printlevel mini
    print[ P_Basis ] 0
    print[ P_SCFInfo ] 1
    print[ P_SCFIterInfo ] 1
    print[ P_OrbEn ] 0
    print[ P_Cartesian ] 0
end
*xyz 0 1
 N        2.7605740000     0.8060000000     0.8064180000 
 C        2.1673710000    -0.3172670000     0.2757820000 
 N        0.9162920000    -0.4977200000     0.1044820000 
 C        3.1240620000    -1.3464140000    -0.1898380000 
 C        2.6821250000    -2.7904380000    -0.2484280000 
 C        2.8491750000    -2.0448290000    -1.5052530000 
 O        3.9217260000    -2.4104080000    -2.3080830000 
 H        2.1711020000     1.4433010000     1.3151530000 
 H        3.6970940000     0.7199050000     1.1619760000 
 H        0.3676000000     0.2899510000     0.4418030000 
 H        4.1735000000    -1.1776630000     0.0239070000 
 H        1.6723660000    -2.9881760000     0.0870920000 
 H        3.4342810000    -3.5342480000    -0.0177650000 
 H        1.9452670000    -1.7217430000    -2.0152510000 
 H        4.1648750000    -1.6538520000    -2.8486150000 
*
