! RI PBE def2-SVP def2-SVP/J NBO PAL2
% maxcore 2000
% output
    # printlevel mini
    print[ P_Basis ] 0
    print[ P_SCFInfo ] 1
    print[ P_SCFIterInfo ] 1
    print[ P_OrbEn ] 0
    print[ P_Cartesian ] 0
end
*xyz 0 1
 N        0.8734090000     1.9996630000     0.4819750000 
 C        2.0954460000     1.7990210000     0.1994520000 
 N        3.0152000000     1.4841660000     1.1485800000 
 C        4.3931890000     1.2475100000     0.9031350000 
 C        5.4575250000     1.9756280000     1.7407910000 
 O        6.1710080000     0.7506730000     1.9439650000 
 C        5.0649170000    -0.0190410000     1.4593080000 
 H        0.3453440000     2.2215130000    -0.3541430000 
 H        2.5285150000     1.8557330000    -0.8068190000 
 H        2.6645680000     1.4199490000     2.0924280000 
 H        4.5754750000     1.3625180000    -0.1663250000 
 H        5.0591850000     2.3785500000     2.6813070000 
 H        6.0663960000     2.7375830000     1.2473230000 
 H        4.4965730000    -0.4800170000     2.2778900000 
 H        5.3717690000    -0.7913480000     0.7492350000 
*
