! RI PBE def2-SVP def2-SVP/J NBO PAL2
% maxcore 2000
% output
    # printlevel mini
    print[ P_Basis ] 0
    print[ P_SCFInfo ] 1
    print[ P_SCFIterInfo ] 1
    print[ P_OrbEn ] 0
    print[ P_Cartesian ] 0
end
*xyz 0 1
 N        2.7580560000     0.4761070000     0.9625160000 
 C        2.1728170000     0.0041800000    -0.0648330000 
 N        2.8233560000    -0.2419300000    -1.2291520000 
 C        4.1877620000     0.1567120000    -1.4307920000 
 C        4.8178770000    -0.6243480000    -2.5493660000 
 C        4.4920310000    -2.0162330000    -2.8274390000 
 O        3.9702020000    -0.9671930000    -3.6385440000 
 H        2.1095860000     0.5436340000     1.7387310000 
 H        1.1119800000    -0.2671070000    -0.1113350000 
 H        2.2803380000    -0.4040590000    -2.0606540000 
 H        4.7380640000    -0.0048600000    -0.5006410000 
 H        4.2626480000     1.2304940000    -1.6530370000 
 H        5.8001820000    -0.2634170000    -2.8497920000 
 H        3.7609020000    -2.5238250000    -2.2044830000 
 H        5.2262100000    -2.6516540000    -3.3153600000 
*
