! RI PBE def2-SVP def2-SVP/J NBO PAL2
% maxcore 2000
% output
    # printlevel mini
    print[ P_Basis ] 0
    print[ P_SCFInfo ] 1
    print[ P_SCFIterInfo ] 1
    print[ P_OrbEn ] 0
    print[ P_Cartesian ] 0
end
*xyz 0 1
 N        0.6913390000    -0.9941200000     0.1433820000 
 C        1.9179420000    -0.6954470000     0.0903220000 
 N        2.8789570000    -1.6233650000     0.4115710000 
 C        4.2162600000    -1.3949290000     0.3842190000 
 C        5.1811240000    -2.2795800000     0.6920570000 
 C        6.5676830000    -1.8742230000     0.6110770000 
 O        7.5167130000    -2.5793180000     0.8624000000 
 H        0.1117220000    -0.2052040000    -0.1217710000 
 H        2.3377320000     0.2735460000    -0.1982540000 
 H        2.5323180000    -2.5327180000     0.6840270000 
 H        4.4931610000    -0.3883120000     0.0791050000 
 H        4.9618090000    -3.2960560000     1.0021350000 
 H        6.7186410000    -0.8185620000     0.2865480000 
*
