! RI PBE def2-SVP def2-SVP/J NBO PAL2
% maxcore 2000
% output
    # printlevel mini
    print[ P_Basis ] 0
    print[ P_SCFInfo ] 1
    print[ P_SCFIterInfo ] 1
    print[ P_OrbEn ] 0
    print[ P_Cartesian ] 0
end
*xyz 0 1
 N        1.1441960000    -0.7889470000    -0.7481510000 
 C        2.2917950000    -0.5953080000    -0.0315700000 
 N        2.5183240000    -1.0691370000     1.1308510000 
 C        3.3239760000     0.2356470000    -0.7492410000 
 C        4.7653620000     0.1490780000    -0.2579560000 
 C        5.0792760000     0.8322260000     1.0705150000 
 O        4.7785590000     0.0708420000     2.2029440000 
 H        0.3274610000    -1.1381650000    -0.2776240000 
 H        0.9793520000    -0.2348760000    -1.5693270000 
 H        1.7345090000    -1.6000440000     1.5023830000 
 H        2.9849630000     1.2792230000    -0.7038510000 
 H        3.2885970000    -0.0427500000    -1.8085660000 
 H        5.3850620000     0.6200380000    -1.0288210000 
 H        5.0787120000    -0.8975460000    -0.1973210000 
 H        4.5675480000     1.8114260000     1.0935820000 
 H        6.1534510000     1.0430430000     1.1045810000 
 H        3.9433470000    -0.4057610000     2.0082730000 
*
