! RI PBE def2-SVP def2-SVP/J NBO PAL2
% maxcore 2000
% output
    # printlevel mini
    print[ P_Basis ] 0
    print[ P_SCFInfo ] 1
    print[ P_SCFIterInfo ] 1
    print[ P_OrbEn ] 0
    print[ P_Cartesian ] 0
end
*xyz 0 1
 N        4.0278040000     0.0909400000     1.3884650000 
 C        2.9661990000    -0.0412640000     0.5221690000 
 N        1.7283640000    -0.0277720000     0.8398340000 
 C        3.2866480000    -0.2754220000    -0.8954050000 
 C        4.4913680000    -0.5060020000    -1.4110620000 
 C        4.7401200000    -0.7382420000    -2.8636620000 
 O        5.6731690000     0.1839550000    -3.3953740000 
 H        3.8143910000     0.4409140000     2.3074040000 
 H        4.8946760000     0.4328160000     1.0096380000 
 H        1.5986960000     0.1355580000     1.8379830000 
 H        2.4077820000    -0.2721880000    -1.5325600000 
 H        5.3785190000    -0.5385470000    -0.7817490000 
 H        3.7917480000    -0.7175490000    -3.4156950000 
 H        5.1891480000    -1.7239880000    -3.0165510000 
 H        5.3127880000     1.0670900000    -3.2764260000 
*
