! RI PBE def2-SVP def2-SVP/J NBO PAL2
% maxcore 2000
% output
    # printlevel mini
    print[ P_Basis ] 0
    print[ P_SCFInfo ] 1
    print[ P_SCFIterInfo ] 1
    print[ P_OrbEn ] 0
    print[ P_Cartesian ] 0
end
*xyz 0 1
 N        4.6450140000     0.5824420000    -1.0802550000 
 C        3.4727710000     0.3370680000    -0.4323050000 
 N        2.2934510000     0.6099860000    -0.8488410000 
 C        3.5503520000    -0.3098740000     0.8870970000 
 C        4.6464000000    -0.6960830000     1.5436420000 
 C        4.5390100000    -1.3301420000     2.8596020000 
 O        5.4838170000    -1.7030270000     3.5077630000 
 H        4.6422340000     1.0221740000    -1.9813310000 
 H        5.5304110000     0.3375610000    -0.6812860000 
 H        2.3085650000     1.0553930000    -1.7658670000 
 H        2.5722220000    -0.4669170000     1.3315610000 
 H        5.6570850000    -0.5734600000     1.1652720000 
 H        3.5003580000    -1.4496210000     3.2346490000 
*
