! RI PBE def2-SVP def2-SVP/J NBO PAL2
% maxcore 2000
% output
    # printlevel mini
    print[ P_Basis ] 0
    print[ P_SCFInfo ] 1
    print[ P_SCFIterInfo ] 1
    print[ P_OrbEn ] 0
    print[ P_Cartesian ] 0
end
*xyz 0 1
 N        0.7232500000    -0.1942340000    -0.2561620000 
 C        2.0754100000    -0.2444750000    -0.0409180000 
 N        2.6812060000     0.2201720000     0.9878110000 
 C        2.8969030000    -0.9328500000    -1.0693930000 
 C        2.3636350000    -1.6900340000    -2.0248250000 
 C        4.3909920000    -0.7876050000    -0.9198840000 
 O        4.8197480000     0.5379210000    -0.7595760000 
 H        0.1922810000     0.4264430000     0.3311390000 
 H        0.4020930000    -0.2478540000    -1.2072360000 
 H        2.0441720000     0.6726380000     1.6398680000 
 H        1.3010900000    -1.8928100000    -2.0972490000 
 H        2.9955870000    -2.1772290000    -2.7588690000 
 H        4.8747250000    -1.1824000000    -1.8158500000 
 H        4.7080230000    -1.4082480000    -0.0689810000 
 H        4.3891860000     0.8309760000     0.0586260000 
*
