! RI PBE def2-SVP def2-SVP/J NBO PAL2
% maxcore 2000
% output
    # printlevel mini
    print[ P_Basis ] 0
    print[ P_SCFInfo ] 1
    print[ P_SCFIterInfo ] 1
    print[ P_OrbEn ] 0
    print[ P_Cartesian ] 0
end
*xyz 0 1
 N        2.8641760000    -0.1219750000     1.1728920000 
 C        2.2299850000     0.1696740000     0.0108380000 
 N        0.9724050000     0.2765970000    -0.1850000000 
 C        3.1358160000     0.3863140000    -1.1639990000 
 C        2.6232790000     0.6820830000    -2.3610050000 
 C        4.6038030000     0.2935630000    -1.0929220000 
 O        5.2720540000     0.0396660000    -0.1174270000 
 H        2.3303620000    -0.2831700000     2.0067530000 
 H        3.8719970000    -0.1793790000     1.1912900000 
 H        0.4450180000     0.1120840000     0.6695060000 
 H        1.5508630000     0.7665720000    -2.4872460000 
 H        3.2720850000     0.8402010000    -3.2160980000 
 H        5.0985490000     0.4858700000    -2.0664820000 
*
