! RI PBE def2-SVP def2-SVP/J NBO PAL2
% maxcore 2000
% output
    # printlevel mini
    print[ P_Basis ] 0
    print[ P_SCFInfo ] 1
    print[ P_SCFIterInfo ] 1
    print[ P_OrbEn ] 0
    print[ P_Cartesian ] 0
end
*xyz 0 1
 N        0.9994890000    -0.0928380000     0.1267930000 
 C        2.3704530000    -0.0553050000     0.0094800000 
 N        3.0558830000     0.0506360000    -1.0598220000 
 C        3.0603240000    -0.2032220000     1.2661220000 
 C        3.6208090000    -0.3092190000     2.3255190000 
 C        4.3822000000    -0.4591060000     3.5588580000 
 O        5.6019020000     0.2464570000     3.5511850000 
 H        0.4602580000     0.2268510000    -0.6602030000 
 H        0.6040830000     0.0972490000     1.0314930000 
 H        2.4518320000     0.1568900000    -1.8742930000 
 H        4.5385820000    -1.5317340000     3.7434400000 
 H        3.8065360000    -0.0699770000     4.4027050000 
 H        6.0556290000     0.0512060000     2.7262230000 
*
