! RI PBE def2-SVP def2-SVP/J NBO PAL2
% maxcore 2000
% output
    # printlevel mini
    print[ P_Basis ] 0
    print[ P_SCFInfo ] 1
    print[ P_SCFIterInfo ] 1
    print[ P_OrbEn ] 0
    print[ P_Cartesian ] 0
end
*xyz 0 1
 N        1.1175350000     0.1753100000     0.0317950000 
 C        2.4331580000    -0.1468460000    -0.1786650000 
 N        3.0552260000    -0.2525570000    -1.2859910000 
 C        3.1567090000    -0.4326590000     1.0366620000 
 C        3.7281320000    -0.6472680000     2.0755400000 
 C        4.4729290000    -0.9314010000     3.2761530000 
 O        4.0671060000    -0.7035290000     4.3863730000 
 H        0.5953790000     0.5709900000    -0.7309260000 
 H        0.8290720000     0.4361930000     0.9584900000 
 H        2.4516580000    -0.0206090000    -2.0745750000 
 H        5.4666960000    -1.3837240000     3.1015550000 
*
