! RI PBE def2-SVP def2-SVP/J NBO PAL2
% maxcore 2000
% output
    # printlevel mini
    print[ P_Basis ] 0
    print[ P_SCFInfo ] 1
    print[ P_SCFIterInfo ] 1
    print[ P_OrbEn ] 0
    print[ P_Cartesian ] 0
end
*xyz 0 1
 N        1.3645040000     1.3528590000    -0.4395070000 
 C        1.9826830000     0.1345800000    -0.5117550000 
 N        1.6998930000    -0.8284000000    -1.2986420000 
 C        3.0967340000    -0.0677760000     0.4872350000 
 C        4.4480800000     0.4351860000    -0.0044360000 
 C        4.6658200000     1.9134960000     0.0504110000 
 O        3.8613670000     2.7272290000     0.4253230000 
 H        0.7524150000     1.6165280000    -1.1930080000 
 H        1.8735330000     2.1015860000     0.0066340000 
 H        0.9517990000    -0.5761790000    -1.9441500000 
 H        3.1651600000    -1.1406700000     0.6610830000 
 H        2.8473320000     0.4192670000     1.4338270000 
 H        4.6412260000     0.1085350000    -1.0346320000 
 H        5.2640770000    -0.0084290000     0.5822850000 
 H        5.6735880000     2.2451770000    -0.2783590000 
*
