! RI PBE def2-SVP def2-SVP/J NBO PAL2
% maxcore 2000
% output
    # printlevel mini
    print[ P_Basis ] 0
    print[ P_SCFInfo ] 1
    print[ P_SCFIterInfo ] 1
    print[ P_OrbEn ] 0
    print[ P_Cartesian ] 0
end
*xyz 0 1
 N        1.1448040000    -0.0512310000     0.3004560000 
 C        2.4664500000    -0.3238430000     0.3200350000 
 N        3.1006720000    -1.2480800000     0.9320530000 
 C        3.2628090000     0.6499660000    -0.5326120000 
 O        2.6761410000     1.5336870000    -1.1206760000 
 C        4.7221480000     0.4509650000    -0.5885990000 
 C        5.4825630000     1.2643270000    -1.3143100000 
 H        0.4821440000    -0.6014570000     0.8124520000 
 H        0.8391360000     0.7328680000    -0.2516860000 
 H        2.4777060000    -1.8453860000     1.4741180000 
 H        5.1211340000    -0.3763470000    -0.0168420000 
 H        5.0360980000     2.0814410000    -1.8715750000 
 H        6.5570840000     1.1368790000    -1.3700150000 
*
