! RI PBE def2-SVP def2-SVP/J NBO PAL2
% maxcore 2000
% output
    # printlevel mini
    print[ P_Basis ] 0
    print[ P_SCFInfo ] 1
    print[ P_SCFIterInfo ] 1
    print[ P_OrbEn ] 0
    print[ P_Cartesian ] 0
end
*xyz 0 1
 N        2.8100950000    -1.1325240000    -1.3468830000 
 C        2.9218920000     0.0572400000    -0.6989790000 
 N        2.7869500000     1.2347610000    -1.1639670000 
 C        3.3323960000    -0.0832230000     0.7644270000 
 O        2.7808760000    -1.2381950000     1.3646290000 
 C        4.8260800000    -0.1257970000     0.8639700000 
 C        5.5130240000    -1.0600980000     1.5016650000 
 H        2.4277730000    -1.1668350000    -2.2743580000 
 H        2.7790920000    -1.9684260000    -0.7880080000 
 H        2.5712760000     1.2288090000    -2.1601000000 
 H        2.9775840000     0.8299980000     1.2567740000 
 H        1.8570400000    -1.0617490000     1.5576780000 
 H        5.3255150000     0.6941550000     0.3566860000 
 H        5.0136470000    -1.8764030000     2.0092670000 
 H        6.5954700000    -1.0284220000     1.5352090000 
*
