! RI PBE def2-SVP def2-SVP/J NBO PAL2
% maxcore 2000
% output
    # printlevel mini
    print[ P_Basis ] 0
    print[ P_SCFInfo ] 1
    print[ P_SCFIterInfo ] 1
    print[ P_OrbEn ] 0
    print[ P_Cartesian ] 0
end
*xyz 0 1
 N        1.6968130000    -1.4853190000    -1.1101770000 
 C        1.4187320000    -0.3210470000    -0.4726580000 
 N        0.3159930000     0.3120390000    -0.4171010000 
 C        2.5811450000     0.3002000000     0.2685560000 
 O        3.7418390000    -0.4900390000     0.1327780000 
 C        4.8548180000    -0.0450440000     0.7494800000 
 C        4.9975950000     1.0567330000     1.4773210000 
 H        0.9845510000    -1.9664980000    -1.6266380000 
 H        2.6224440000    -1.8706090000    -1.0661250000 
 H       -0.4221510000    -0.1594680000    -0.9355170000 
 H        2.3074600000     0.3999110000     1.3239220000 
 H        2.7528150000     1.3043320000    -0.1325460000 
 H        5.6776860000    -0.7300050000     0.5757840000 
 H        4.1966700000     1.7575730000     1.6675900000 
 H        5.9665090000     1.2701420000     1.9061520000 
*
