! RI PBE def2-SVP def2-SVP/J NBO PAL2
% maxcore 2000
% output
    # printlevel mini
    print[ P_Basis ] 0
    print[ P_SCFInfo ] 1
    print[ P_SCFIterInfo ] 1
    print[ P_OrbEn ] 0
    print[ P_Cartesian ] 0
end
*xyz 0 1
 N        0.2787250000     0.1746080000    -3.5377530000 
 C        1.4873810000     0.3517390000    -3.2053380000 
 N        2.0775440000     1.5884250000    -3.3223390000 
 O        3.0884520000     1.8090190000    -2.3826100000 
 C        4.2357240000     2.2885640000    -3.0217880000 
 C        4.3683280000     3.7574010000    -3.2505310000 
 C        5.1459140000     3.0753390000    -2.1557180000 
 H        0.0327720000    -0.8082340000    -3.4866170000 
 H        2.1907080000    -0.4100630000    -2.8558460000 
 H        1.4168750000     2.3579790000    -3.3296140000 
 H        4.6493830000     1.6041400000    -3.7560200000 
 H        3.5382080000     4.3812940000    -2.9431490000 
 H        4.8915050000     4.0939040000    -4.1365970000 
 H        4.8160000000     3.2474120000    -1.1390290000 
 H        6.2124900000     2.9346630000    -2.2736520000 
*
