! RI PBE def2-SVP def2-SVP/J NBO PAL2
% maxcore 2000
% output
    # printlevel mini
    print[ P_Basis ] 0
    print[ P_SCFInfo ] 1
    print[ P_SCFIterInfo ] 1
    print[ P_OrbEn ] 0
    print[ P_Cartesian ] 0
end
*xyz 0 1
 N        1.4144700000    -0.5221150000    -0.2395520000 
 C        2.5720740000    -0.0308190000    -0.3710850000 
 N        2.7705520000     1.1143770000    -1.1136380000 
 O        3.8469830000     1.8808990000    -0.6697860000 
 C        4.7437040000     2.0875780000    -1.7566330000 
 C        5.8651260000     2.8801870000    -1.2898190000 
 C        6.8016140000     3.5341910000    -0.9259490000 
 H        1.4525570000    -1.4092300000     0.2511150000 
 H        3.5100530000    -0.4423400000     0.0137150000 
 H        1.9386960000     1.6895270000    -1.1963050000 
 H        4.2284520000     2.6076880000    -2.5732360000 
 H        5.0923860000     1.1224930000    -2.1417140000 
 H        7.6312310000     4.1156650000    -0.5988930000 
*
