! RI PBE def2-SVP def2-SVP/J NBO PAL2
% maxcore 2000
% output
    # printlevel mini
    print[ P_Basis ] 0
    print[ P_SCFInfo ] 1
    print[ P_SCFIterInfo ] 1
    print[ P_OrbEn ] 0
    print[ P_Cartesian ] 0
end
*xyz 0 1
 N        2.5311490000    -2.0217710000    -3.6808050000 
 C        3.1163600000    -1.3338780000    -2.6441600000 
 N        2.5770360000    -0.5618580000    -1.7943040000 
 O        4.4411040000    -1.5512150000    -2.6576570000 
 C        5.2011440000    -0.8270570000    -1.6902130000 
 C        6.6417700000    -1.0774900000    -1.9596580000 
 C        7.5048330000    -1.4798340000    -1.0392010000 
 H        1.5508190000    -2.2183570000    -3.5835490000 
 H        3.0786690000    -2.7749120000    -4.0634400000 
 H        1.5751190000    -0.4937170000    -1.9331160000 
 H        4.9161070000    -1.1426290000    -0.6835100000 
 H        4.9562900000     0.2361700000    -1.7807170000 
 H        6.9775460000    -0.8793390000    -2.9747960000 
 H        7.1890140000    -1.6891180000    -0.0218360000 
 H        8.5572340000    -1.6070960000    -1.2641280000 
*
