! RI PBE def2-SVP def2-SVP/J NBO PAL2
% maxcore 2000
% output
    # printlevel mini
    print[ P_Basis ] 0
    print[ P_SCFInfo ] 1
    print[ P_SCFIterInfo ] 1
    print[ P_OrbEn ] 0
    print[ P_Cartesian ] 0
end
*xyz 0 1
 N        1.0772860000     0.5890180000     0.2326240000 
 C        2.3772210000     0.1989290000     0.1053240000 
 O        3.0383600000    -0.1492710000     1.0625950000 
 C        2.9777400000     0.2920700000    -1.2521230000 
 C        2.2062190000     0.4536550000    -2.5403890000 
 C        2.9589460000     1.6053390000    -2.0050840000 
 O        4.0858340000     1.9952880000    -2.7094360000 
 H        0.6587250000     0.4631630000     1.1385570000 
 H        0.4655930000     0.6385710000    -0.5608880000 
 H        3.9082810000    -0.2560680000    -1.3231190000 
 H        1.1230970000     0.4808230000    -2.5265180000 
 H        2.6303550000    -0.0403010000    -3.4052290000 
 H        2.3877790000     2.4107370000    -1.5474880000 
 H        4.7318650000     2.3377460000    -2.0848370000 
*
