! RI PBE def2-SVP def2-SVP/J NBO PAL2
% maxcore 2000
% output
    # printlevel mini
    print[ P_Basis ] 0
    print[ P_SCFInfo ] 1
    print[ P_SCFIterInfo ] 1
    print[ P_OrbEn ] 0
    print[ P_Cartesian ] 0
end
*xyz 0 1
 N        2.8671090000     0.6727910000    -1.0619780000 
 C        2.1649650000     0.2114510000     0.0034670000 
 O        0.9654860000     0.0282010000    -0.0450330000 
 C        2.9656650000    -0.0605310000     1.2522610000 
 C        2.4376150000     0.5646040000     2.5637100000 
 C        2.7667370000    -0.7523830000     3.2870610000 
 C        2.7699050000    -1.4441300000     1.9132000000 
 H        2.3734730000     0.8676210000    -1.9160490000 
 H        3.8572610000     0.8237060000    -1.0212970000 
 H        4.0273310000     0.1609560000     1.1106530000 
 H        1.3599360000     0.7169550000     2.4828050000 
 H        2.9114040000     1.4842820000     2.9100030000 
 H        2.0603140000    -1.1118900000     4.0363270000 
 H        3.7650480000    -0.7307950000     3.7303390000 
 H        1.7811710000    -1.8294930000     1.6581550000 
 H        3.5222810000    -2.2086460000     1.7140870000 
*
