! RI PBE def2-SVP def2-SVP/J NBO PAL2
% maxcore 2000
% output
    # printlevel mini
    print[ P_Basis ] 0
    print[ P_SCFInfo ] 1
    print[ P_SCFIterInfo ] 1
    print[ P_OrbEn ] 0
    print[ P_Cartesian ] 0
end
*xyz 0 1
 N        2.3681980000     1.1995940000     0.3662720000 
 C        2.6056870000    -0.1088500000     0.1116730000 
 O        2.3805220000    -0.9866980000     0.9196740000 
 C        3.1891080000    -0.3996480000    -1.2622260000 
 C        4.7231250000    -0.2071310000    -1.3301480000 
 C        4.8036010000    -1.7380280000    -1.2222200000 
 N        3.3634440000    -1.8224540000    -1.5336670000 
 H        1.9838320000     1.4594350000     1.2578830000 
 H        2.5210260000     1.9096310000    -0.3259610000 
 H        2.6030380000     0.1377050000    -2.0184180000 
 H        5.1812350000     0.3768050000    -0.5322630000 
 H        5.0510200000     0.1757010000    -2.2961640000 
 H        5.0574710000    -2.0737800000    -0.2114270000 
 H        5.4483970000    -2.2495150000    -1.9408860000 
 H        2.8367960000    -2.3945670000    -0.8815110000 
*
