! RI PBE def2-SVP def2-SVP/J NBO PAL2
% maxcore 2000
% output
    # printlevel mini
    print[ P_Basis ] 0
    print[ P_SCFInfo ] 1
    print[ P_SCFIterInfo ] 1
    print[ P_OrbEn ] 0
    print[ P_Cartesian ] 0
end
*xyz 0 1
 N        2.0969750000     1.2717460000    -0.4136920000 
 C        2.5775990000     0.1625880000     0.1994440000 
 O        2.4659550000    -0.0164210000     1.3955160000 
 C        3.2583690000    -0.8369130000    -0.6993490000 
 C        4.6400360000    -1.3452050000    -0.2408760000 
 N        4.2288010000    -2.7157380000    -0.5832780000 
 C        2.8158070000    -2.3067550000    -0.5534530000 
 H        1.6336000000     1.9675610000     0.1449200000 
 H        2.1897200000     1.4166530000    -1.4013640000 
 H        3.2702620000    -0.5199910000    -1.7437140000 
 H        4.7722750000    -1.1664590000     0.8319070000 
 H        5.5104040000    -0.9765140000    -0.7895600000 
 H        4.4851390000    -3.4222860000     0.0941990000 
 H        2.3203470000    -2.4588840000     0.4117850000 
 H        2.2010110000    -2.7209020000    -1.3565950000 
*
