! RI PBE def2-SVP def2-SVP/J NBO PAL2
% maxcore 2000
% output
    # printlevel mini
    print[ P_Basis ] 0
    print[ P_SCFInfo ] 1
    print[ P_SCFIterInfo ] 1
    print[ P_OrbEn ] 0
    print[ P_Cartesian ] 0
end
*xyz 0 1
 N        2.3911360000    -1.5794220000     0.2643940000 
 C        2.4436870000    -0.4430700000    -0.4673790000 
 O        1.7752390000    -0.2618840000    -1.4627800000 
 C        3.3919200000     0.6165790000     0.0759830000 
 C        4.7505020000     0.0961290000     0.4422520000 
 C        5.4672750000     0.5664460000     1.6225480000 
 O        4.8309290000    -0.7025300000     1.6222950000 
 H        1.7823220000    -2.3179330000    -0.0422250000 
 H        2.9794140000    -1.7101820000     1.0699320000 
 H        2.9267960000     1.0690540000     0.9579070000 
 H        3.4769660000     1.3868270000    -0.6917780000 
 H        5.3419080000    -0.2976380000    -0.3829600000 
 H        5.0045730000     1.3172400000     2.2585370000 
 H        6.5532210000     0.5350850000     1.6441950000 
*
