! RI PBE def2-SVP def2-SVP/J NBO PAL2
% maxcore 2000
% output
    # printlevel mini
    print[ P_Basis ] 0
    print[ P_SCFInfo ] 1
    print[ P_SCFIterInfo ] 1
    print[ P_OrbEn ] 0
    print[ P_Cartesian ] 0
end
*xyz 0 1
 N        1.1256490000     0.9590170000    -0.2111500000 
 C        2.3881700000     0.4639480000    -0.1515540000 
 O        2.9170690000    -0.0908110000    -1.0940990000 
 C        3.0631330000     0.6569390000     1.1571910000 
 C        4.3091140000     0.2085630000     1.3276830000 
 C        5.0493080000     0.3343430000     2.5229920000 
 C        5.7087830000     0.4241130000     3.5257890000 
 H        0.6140380000     0.8606000000    -1.0703860000 
 H        0.6920950000     1.4168120000     0.5684890000 
 H        2.5383740000     1.1602090000     1.9627930000 
 H        4.7831380000    -0.2878710000     0.4833240000 
 H        6.2872290000     0.5064370000     4.4156180000 
*
