! RI PBE def2-SVP def2-SVP/J NBO PAL2
% maxcore 2000
% output
    # printlevel mini
    print[ P_Basis ] 0
    print[ P_SCFInfo ] 1
    print[ P_SCFIterInfo ] 1
    print[ P_OrbEn ] 0
    print[ P_Cartesian ] 0
end
*xyz 0 1
 N        1.0078190000     0.0857980000    -0.0572830000 
 C        2.3591180000     0.0284870000    -0.0027880000 
 O        2.9796410000    -0.7230280000     0.7160670000 
 C        3.0286220000     0.9620580000    -0.8953570000 
 C        3.6450290000     1.7134040000    -1.6137190000 
 C        4.3362520000     2.5611250000    -2.4237890000 
 C        4.9463720000     3.3124890000    -3.1417830000 
 H        0.4789310000    -0.5321670000     0.5338290000 
 H        0.5333050000     0.7248880000    -0.6683340000 
 H        5.4892110000     3.9746550000    -3.7745440000 
*
