! RI PBE def2-SVP def2-SVP/J NBO PAL2
% maxcore 2000
% output
    # printlevel mini
    print[ P_Basis ] 0
    print[ P_SCFInfo ] 1
    print[ P_SCFIterInfo ] 1
    print[ P_OrbEn ] 0
    print[ P_Cartesian ] 0
end
*xyz 0 1
 N        1.3303370000    -0.8561080000     0.2597990000 
 C        2.4439940000    -0.1233450000     0.0097660000 
 O        2.8663830000     0.7345860000     0.7472410000 
 C        3.1146840000    -0.4111000000    -1.3092670000 
 C        2.4491280000    -0.7226180000    -2.4221460000 
 C        4.5321840000    -0.2355560000    -1.3350920000 
 N        5.6770580000    -0.1254280000    -1.3710890000 
 H        0.8883940000    -0.7183130000     1.1533790000 
 H        1.1558720000    -1.7159440000    -0.2277500000 
 H        1.3701810000    -0.8191390000    -2.4160040000 
 H        2.9629840000    -0.8548240000    -3.3659370000 
*
