! RI PBE def2-SVP def2-SVP/J NBO PAL2
% maxcore 2000
% output
    # printlevel mini
    print[ P_Basis ] 0
    print[ P_SCFInfo ] 1
    print[ P_SCFIterInfo ] 1
    print[ P_OrbEn ] 0
    print[ P_Cartesian ] 0
end
*xyz 0 1
 N        1.5765800000     0.1237190000    -1.4404370000 
 C        1.9343540000     0.5627000000    -0.2064830000 
 O        1.4223340000     1.5275100000     0.3235490000 
 C        3.0288480000    -0.2467160000     0.4600540000 
 C        4.4252170000     0.2996990000     0.1582440000 
 C        4.7547670000     0.3708560000    -1.3231520000 
 O        4.4722530000    -0.8324290000    -2.0217910000 
 H        0.9413320000     0.6947060000    -1.9720890000 
 H        2.1606020000    -0.5385270000    -1.9257010000 
 H        2.9668080000    -1.2901640000     0.1427120000 
 H        2.8469290000    -0.2053730000     1.5343550000 
 H        5.1621280000    -0.3299000000     0.6705780000 
 H        4.5281920000     1.3046080000     0.5796870000 
 H        5.8038190000     0.6604940000    -1.4598780000 
 H        4.1439920000     1.1343130000    -1.8094060000 
 H        5.0446440000    -1.5262940000    -1.6840320000 
*
