! RI PBE def2-SVP def2-SVP/J NBO PAL2
% maxcore 2000
% output
    # printlevel mini
    print[ P_Basis ] 0
    print[ P_SCFInfo ] 1
    print[ P_SCFIterInfo ] 1
    print[ P_OrbEn ] 0
    print[ P_Cartesian ] 0
end
*xyz 0 1
 N        1.1248880000    -0.0686090000    -0.0963530000 
 C        2.4710140000    -0.0670480000     0.0631130000 
 O        3.0802800000    -1.0007060000     0.5417860000 
 C        3.1390810000     1.1819210000    -0.3997710000 
 C        4.4576300000     1.3270400000    -0.3054430000 
 C        5.1365390000     2.5589230000    -0.7596590000 
 O        4.5693980000     3.5074750000    -1.2397050000 
 H        0.6078940000    -0.8800990000     0.1949040000 
 H        0.6326060000     0.7100580000    -0.4932640000 
 H        2.5460500000     1.9894180000    -0.8214120000 
 H        5.0550410000     0.5235850000     0.1149540000 
 H        6.2372900000     2.5679510000    -0.6322500000 
*
