! RI PBE def2-SVP def2-SVP/J NBO PAL2
% maxcore 2000
% output
    # printlevel mini
    print[ P_Basis ] 0
    print[ P_SCFInfo ] 1
    print[ P_SCFIterInfo ] 1
    print[ P_OrbEn ] 0
    print[ P_Cartesian ] 0
end
*xyz 0 1
 N        1.0415970000     0.0089720000     0.1654030000 
 C        2.3758970000     0.0893050000    -0.0541250000 
 O        2.9829480000    -0.6525450000    -0.7953210000 
 C        3.0383390000     1.1513520000     0.6867810000 
 C        3.6356740000     2.0191760000     1.2694600000 
 C        4.4216020000     3.0259260000     1.9701380000 
 O        5.6552650000     3.3060180000     1.3528620000 
 H        0.5187230000    -0.6941580000    -0.3273840000 
 H        0.5678980000     0.6602060000     0.7636780000 
 H        4.5540420000     2.6974850000     3.0112840000 
 H        3.8701540000     3.9693350000     2.0009260000 
 H        6.0950620000     2.4724380000     1.1625870000 
*
