! RI PBE def2-SVP def2-SVP/J NBO PAL2
% maxcore 2000
% output
    # printlevel mini
    print[ P_Basis ] 0
    print[ P_SCFInfo ] 1
    print[ P_SCFIterInfo ] 1
    print[ P_OrbEn ] 0
    print[ P_Cartesian ] 0
end
*xyz 0 1
 N        2.1036490000    -1.5694430000     0.3782270000 
 C        2.4287240000    -0.2708760000     0.5738930000 
 O        2.0965210000     0.3568610000     1.5587920000 
 C        3.2487840000     0.3646890000    -0.5369440000 
 C        4.7441740000     0.1329990000    -0.3654200000 
 C        5.2400540000    -1.2136690000    -0.7908240000 
 O        4.5568070000    -2.0943840000    -1.2448450000 
 H        1.6489550000    -2.0572670000     1.1311880000 
 H        2.5574540000    -2.0946900000    -0.3518670000 
 H        3.0420090000     1.4333460000    -0.4915950000 
 H        2.9321930000    -0.0103730000    -1.5133140000 
 H        5.0623030000     0.2950820000     0.6726590000 
 H        5.3220350000     0.8635900000    -0.9474130000 
 H        6.3340290000    -1.3638650000    -0.6757450000 
*
