! RI PBE def2-SVP def2-SVP/J NBO PAL2
% maxcore 2000
% output
    # printlevel mini
    print[ P_Basis ] 0
    print[ P_SCFInfo ] 1
    print[ P_SCFIterInfo ] 1
    print[ P_OrbEn ] 0
    print[ P_Cartesian ] 0
end
*xyz 0 1
 N        1.2111340000     0.5092530000     0.0601070000 
 C        2.1421740000    -0.4412660000     0.2310240000 
 O        2.5692980000    -0.8535860000     1.2840240000 
 C        2.6482770000    -0.9932420000    -1.1161940000 
 O        2.2179100000    -0.5764770000    -2.1644960000 
 C        3.6511180000    -2.0206050000    -1.0256110000 
 C        4.4888050000    -2.8794630000    -0.9732430000 
 H        0.7989450000     0.9531120000     0.8612450000 
 H        0.9388740000     0.7672320000    -0.8735360000 
 H        5.2320740000    -3.6413590000    -0.9226980000 
*
