! RI PBE def2-SVP def2-SVP/J NBO PAL2
% maxcore 2000
% output
    # printlevel mini
    print[ P_Basis ] 0
    print[ P_SCFInfo ] 1
    print[ P_SCFIterInfo ] 1
    print[ P_OrbEn ] 0
    print[ P_Cartesian ] 0
end
*xyz 0 1
 N        1.1408070000    -0.4385820000     0.0542590000 
 C        2.4035510000    -0.1693460000    -0.3272100000 
 O        2.9762070000    -0.7123450000    -1.2478090000 
 C        3.0912270000     0.9348040000     0.4923230000 
 O        2.3170910000     1.3853930000     1.5794070000 
 C        4.4759470000     0.5059360000     0.8638970000 
 C        5.0662890000     0.7932040000     2.0150480000 
 H        0.5983260000    -1.0864050000    -0.4895790000 
 H        0.7074440000     0.1293360000     0.7611260000 
 H        3.1639780000     1.7813460000    -0.2041790000 
 H        2.5662100000     0.8590460000     2.3469740000 
 H        4.9780040000    -0.0861330000     0.1059080000 
 H        4.5934110000     1.4095750000     2.7732910000 
 H        6.0656080000     0.4363910000     2.2317530000 
*
