! RI PBE def2-SVP def2-SVP/J NBO PAL2
% maxcore 2000
% output
    # printlevel mini
    print[ P_Basis ] 0
    print[ P_SCFInfo ] 1
    print[ P_SCFIterInfo ] 1
    print[ P_OrbEn ] 0
    print[ P_Cartesian ] 0
end
*xyz 0 1
 N        0.1013060000     0.7346180000     0.2713930000 
 C        0.7596450000    -0.0481300000    -0.6039870000 
 O        0.2874190000    -0.4754100000    -1.6353120000 
 C        2.1879680000    -0.3945930000    -0.2344330000 
 O        2.5579420000     0.1900600000     0.9928320000 
 C        3.8134530000    -0.0485260000     1.4284100000 
 C        4.7547240000    -0.7745050000     0.8369860000 
 H       -0.8488180000     0.9909100000     0.0690240000 
 H        0.5510630000     1.0557410000     1.1096840000 
 H        2.8374180000    -0.0455470000    -1.0450140000 
 H        2.2656860000    -1.4865170000    -0.1861870000 
 H        3.9807720000     0.4502360000     2.3766620000 
 H        4.6162180000    -1.2824050000    -0.1074170000 
 H        5.7163140000    -0.8671350000     1.3217590000 
*
