! RI PBE def2-SVP def2-SVP/J NBO PAL2
% maxcore 2000
% output
    # printlevel mini
    print[ P_Basis ] 0
    print[ P_SCFInfo ] 1
    print[ P_SCFIterInfo ] 1
    print[ P_OrbEn ] 0
    print[ P_Cartesian ] 0
end
*xyz 0 1
 N        1.1613210000     0.1104200000     0.1005700000 
 C        2.5259810000     0.0137760000     0.0856900000 
 O        3.1136610000    -1.0485640000    -0.0143700000 
 N        3.1804350000     1.1969220000     0.1911050000 
 C        2.7803990000     2.5847340000     0.3201690000 
 C        4.2797240000     2.9579110000     0.3473380000 
 C        4.6055140000     1.4515040000     0.2081300000 
 H        0.6422100000    -0.7433340000     0.0245590000 
 H        0.6720670000     0.9806450000     0.1824340000 
 H        2.2280590000     2.8137860000     1.2393640000 
 H        2.2196490000     2.9766050000    -0.5368310000 
 H        4.6147660000     3.4113630000     1.2782990000 
 H        4.6064900000     3.5727770000    -0.4891600000 
 H        5.1265180000     0.9989940000     1.0562640000 
 H        5.1188170000     1.1606910000    -0.7124530000 
*
