! RI PBE def2-SVP def2-SVP/J NBO PAL2
% maxcore 2000
% output
    # printlevel mini
    print[ P_Basis ] 0
    print[ P_SCFInfo ] 1
    print[ P_SCFIterInfo ] 1
    print[ P_OrbEn ] 0
    print[ P_Cartesian ] 0
end
*xyz 0 1
 N        2.1863480000    -0.5239720000    -2.2547670000 
 C        2.0732160000    -0.2074360000    -0.9278740000 
 O        1.0098500000     0.0386890000    -0.3944230000 
 N        3.2572410000    -0.2030460000    -0.2269420000 
 C        4.4771080000    -0.7582320000    -0.6986480000 
 C        5.3437240000     0.0638920000    -1.6158110000 
 C        5.7482310000    -0.1607800000    -0.1929860000 
 H        1.3689040000    -0.3260720000    -2.8040770000 
 H        3.0806420000    -0.4536440000    -2.7080800000 
 H        3.1109640000    -0.1610030000     0.7687380000 
 H        4.4822380000    -1.8331330000    -0.8703150000 
 H        4.9830900000     1.0517880000    -1.8743470000 
 H        5.8930910000    -0.4494470000    -2.3954000000 
 H        5.6598840000     0.6786890000     0.4850810000 
 H        6.5737880000    -0.8295910000     0.0123630000 
*
