! RI PBE def2-SVP def2-SVP/J NBO PAL2
% maxcore 2000
% output
    # printlevel mini
    print[ P_Basis ] 0
    print[ P_SCFInfo ] 1
    print[ P_SCFIterInfo ] 1
    print[ P_OrbEn ] 0
    print[ P_Cartesian ] 0
end
*xyz 0 1
 N        2.6054960000     2.9124890000     4.1009380000 
 C        3.1006350000     2.0264220000     3.1656690000 
 O        2.3784140000     1.3137860000     2.4988970000 
 N        4.4648550000     2.0417170000     3.0486930000 
 C        5.1283030000     1.3041230000     1.9979670000 
 C        6.4081300000     0.7053130000     2.4797450000 
 C        7.5905280000     0.9228390000     1.9220760000 
 H        1.6374040000     2.7482050000     4.3211610000 
 H        3.1837860000     3.1426710000     4.8918640000 
 H        4.9642980000     2.8205660000     3.4439940000 
 H        5.3150020000     1.9338890000     1.1191870000 
 H        4.4256740000     0.5250180000     1.6909650000 
 H        6.3264130000     0.0523620000     3.3461210000 
 H        7.6962800000     1.5754240000     1.0604660000 
 H        8.4918000000     0.4506760000     2.2950550000 
*
