! RI PBE def2-SVP def2-SVP/J NBO PAL2
% maxcore 2000
% output
    # printlevel mini
    print[ P_Basis ] 0
    print[ P_SCFInfo ] 1
    print[ P_SCFIterInfo ] 1
    print[ P_OrbEn ] 0
    print[ P_Cartesian ] 0
end
*xyz 0 1
 N        1.2472090000    -0.1570630000    -0.3742590000 
 C        2.6111880000    -0.0323230000    -0.2236770000 
 O        3.2220310000     0.9653010000    -0.5480560000 
 N        3.2169450000    -1.1247490000     0.3391300000 
 C        4.6109210000    -1.0303890000     0.7135620000 
 C        5.1810170000    -2.3462200000     0.9548640000 
 C        5.6479860000    -3.4287700000     1.1763590000 
 H        0.8489270000     0.5575760000    -0.9602680000 
 H        0.8660070000    -1.0782120000    -0.5124120000 
 H        2.6521630000    -1.7706990000     0.8645710000 
 H        4.7526120000    -0.4047220000     1.6047280000 
 H        5.1404160000    -0.5282750000    -0.0993100000 
 H        6.0701790000    -4.3874360000     1.3653480000 
*
