! RI PBE def2-SVP def2-SVP/J NBO PAL2
% maxcore 2000
% output
    # printlevel mini
    print[ P_Basis ] 0
    print[ P_SCFInfo ] 1
    print[ P_SCFIterInfo ] 1
    print[ P_OrbEn ] 0
    print[ P_Cartesian ] 0
end
*xyz 0 1
 N        1.1866340000     0.5345980000     0.9416950000 
 C        2.4601280000     0.8259580000     1.3068270000 
 O        2.8067640000     1.8159840000     1.8970140000 
 O        3.2876810000    -0.1720530000     0.9206460000 
 C        4.6280280000    -0.0219070000     1.3177120000 
 C        5.0794820000    -0.7253840000     2.5480600000 
 C        5.4644790000    -1.2388740000     1.1843440000 
 H        0.5113160000     1.2718470000     1.0198050000 
 H        1.0121820000    -0.2232690000     0.3077400000 
 H        5.0406820000     0.9514750000     1.0865390000 
 H        4.3304950000    -1.2874910000     3.0912150000 
 H        5.8283740000    -0.2440030000     3.1637100000 
 H        4.9684950000    -2.1368460000     0.8382620000 
 H        6.4859500000    -1.1215260000     0.8459300000 
*
