! RI PBE def2-SVP def2-SVP/J NBO PAL2
% maxcore 2000
% output
    # printlevel mini
    print[ P_Basis ] 0
    print[ P_SCFInfo ] 1
    print[ P_SCFIterInfo ] 1
    print[ P_OrbEn ] 0
    print[ P_Cartesian ] 0
end
*xyz 0 1
 N        1.9078670000    -1.6255440000    -0.1143710000 
 C        2.4555790000    -0.3906420000    -0.1695460000 
 O        1.9020310000     0.6030570000    -0.5641140000 
 O        3.7420540000    -0.4437880000     0.2544010000 
 C        4.4287980000     0.8037890000     0.2927620000 
 C        4.4623210000     1.3609560000     1.6354190000 
 C        4.5047770000     1.8307750000     2.7380160000 
 H        0.9243610000    -1.7023880000    -0.2929680000 
 H        2.3854860000    -2.3660260000     0.3649860000 
 H        3.9444960000     1.5030590000    -0.3927150000 
 H        5.4438410000     0.6027610000    -0.0556510000 
 H        4.5343990000     2.2493710000     3.7162810000 
*
