! RI PBE def2-SVP def2-SVP/J NBO PAL2
% maxcore 2000
% output
    # printlevel mini
    print[ P_Basis ] 0
    print[ P_SCFInfo ] 1
    print[ P_SCFIterInfo ] 1
    print[ P_OrbEn ] 0
    print[ P_Cartesian ] 0
end
*xyz 0 1
 N        0.9786770000     0.2077650000    -0.1449050000 
 N        2.3608420000     0.1250270000    -0.1212440000 
 C        3.2018060000     1.2085630000    -0.2110690000 
 C        4.4823040000     0.7403050000    -0.1514770000 
 C        4.4301690000    -0.6777850000    -0.0205530000 
 C        3.1023630000    -1.0110170000    -0.0063220000 
 O        2.4293420000    -2.1797870000     0.0938790000 
 H        0.6066310000    -0.1897420000     0.7105460000 
 H        0.6255120000    -0.3416840000    -0.9205240000 
 H        2.7910340000     2.1989130000    -0.3078470000 
 H        5.3755840000     1.3427540000    -0.1965180000 
 H        5.2632940000    -1.3596780000     0.0530100000 
 H        3.0697430000    -2.8913140000     0.1673160000 
*
