! RI PBE def2-SVP def2-SVP/J NBO PAL2
% maxcore 2000
% output
    # printlevel mini
    print[ P_Basis ] 0
    print[ P_SCFInfo ] 1
    print[ P_SCFIterInfo ] 1
    print[ P_OrbEn ] 0
    print[ P_Cartesian ] 0
end
*xyz 0 1
 N        1.1062890000     0.1673050000     0.0201420000 
 N        2.4617110000     0.1090060000    -0.1970410000 
 C        3.2082090000    -1.1077260000    -0.3717800000 
 C        4.6015050000    -0.6106470000    -0.5696940000 
 C        4.6248220000     0.7169540000    -0.5115860000 
 C        3.2534870000     1.2385430000    -0.2700650000 
 O        2.8970990000     2.3851110000    -0.1604380000 
 H        0.8507560000    -0.3038410000     0.8793480000 
 H        0.5916970000    -0.2280370000    -0.7572960000 
 H        2.8531040000    -1.6826730000    -1.2389010000 
 H        3.1302420000    -1.7635060000     0.5071610000 
 H        5.4393430000    -1.2753710000    -0.7333890000 
 H        5.4749470000     1.3750910000    -0.6156500000 
*
