! RI PBE def2-SVP def2-SVP/J NBO PAL2
% maxcore 2000
% output
    # printlevel mini
    print[ P_Basis ] 0
    print[ P_SCFInfo ] 1
    print[ P_SCFIterInfo ] 1
    print[ P_OrbEn ] 0
    print[ P_Cartesian ] 0
end
*xyz 0 1
 N        0.9386070000     0.3033890000    -0.0420790000 
 N        2.3178340000     0.1735740000    -0.0319500000 
 C        3.1559240000     1.2258310000    -0.1755770000 
 C        4.4470730000     0.7542720000    -0.1189030000 
 C        4.3623240000    -0.6461710000     0.0675600000 
 O        5.3825710000    -1.5359640000     0.1811080000 
 C        3.0351240000    -0.9911110000     0.1195380000 
 H        0.5609870000    -0.0356230000     0.8354670000 
 H        0.5525180000    -0.2529400000    -0.7964240000 
 H        2.7619010000     2.2199370000    -0.3059260000 
 H        5.3450640000     1.3479710000    -0.2020310000 
 H        6.2125560000    -1.0592070000     0.1127660000 
 H        2.5538960000    -1.9459790000     0.2487590000 
*
