! RI PBE def2-SVP def2-SVP/J NBO PAL2
% maxcore 2000
% output
    # printlevel mini
    print[ P_Basis ] 0
    print[ P_SCFInfo ] 1
    print[ P_SCFIterInfo ] 1
    print[ P_OrbEn ] 0
    print[ P_Cartesian ] 0
end
*xyz 0 1
 N        1.1122970000    -0.3623440000     0.2385000000 
 N        2.4535520000    -0.1000300000    -0.0024280000 
 C        3.0150820000    -0.7640770000    -0.9197310000 
 O        4.3431260000    -0.5553940000    -1.1712440000 
 C        4.7592550000    -1.4047820000    -2.2246170000 
 C        3.5437970000    -2.1763950000    -2.6064650000 
 C        2.5292730000    -1.7901540000    -1.8377060000 
 H        0.7577180000     0.3965570000     0.8022150000 
 H        0.5598640000    -0.4052300000    -0.6134600000 
 H        5.5721260000    -2.0530810000    -1.8730330000 
 H        5.1521080000    -0.7962850000    -3.0493240000 
 H        3.5313110000    -2.9341090000    -3.3782740000 
 H        1.5216820000    -2.1780860000    -1.8433440000 
*
