! RI PBE def2-SVP def2-SVP/J NBO PAL2
% maxcore 2000
% output
    # printlevel mini
    print[ P_Basis ] 0
    print[ P_SCFInfo ] 1
    print[ P_SCFIterInfo ] 1
    print[ P_OrbEn ] 0
    print[ P_Cartesian ] 0
end
*xyz 0 1
 N        0.7447440000    -0.5807200000    -1.6354360000 
 N        2.0630410000    -0.8580320000    -1.7288840000 
 C        2.8605540000    -0.3395720000    -0.8881700000 
 C        4.3202540000    -0.5480370000    -1.0165620000 
 C        5.2445720000     0.6824520000    -0.9913750000 
 C        5.9620910000    -0.0581040000     0.1350480000 
 O        4.9229920000    -1.0455300000     0.1993870000 
 H        0.1882730000    -1.3042400000    -2.0605250000 
 H        0.4114510000    -0.3087720000    -0.7152280000 
 H        2.5084930000     0.2760550000    -0.0495430000 
 H        4.5070770000    -1.2226540000    -1.8591670000 
 H        4.7383820000     1.5921750000    -0.6666950000 
 H        5.8067040000     0.8839780000    -1.9017010000 
 H        6.0827070000     0.4718930000     1.0837890000 
 H        6.9218650000    -0.5033010000    -0.1514490000 
*
