! RI PBE def2-SVP def2-SVP/J NBO PAL2
% maxcore 2000
% output
    # printlevel mini
    print[ P_Basis ] 0
    print[ P_SCFInfo ] 1
    print[ P_SCFIterInfo ] 1
    print[ P_OrbEn ] 0
    print[ P_Cartesian ] 0
end
*xyz 0 1
 N        0.8786860000    -0.0348840000     0.2558750000 
 N        2.2319500000    -0.0932500000     0.2194840000 
 C        2.8940670000     0.9828480000     0.3400900000 
 C        4.3725000000     0.9698310000     0.3865380000 
 C        5.1396450000     1.9553660000    -0.5139620000 
 O        5.8793150000     2.4763900000     0.5951070000 
 C        5.0735830000     1.7396750000     1.5216450000 
 H        0.4717370000    -0.8188690000    -0.2281220000 
 H        0.4682990000     0.8521130000    -0.0219960000 
 H        2.3895730000     1.9568650000     0.4238950000 
 H        4.7234090000    -0.0571840000     0.2902830000 
 H        4.5089610000     2.7236220000    -0.9789570000 
 H        5.7889040000     1.5143730000    -1.2754400000 
 H        4.4094570000     2.3975760000     2.0957420000 
 H        5.6757220000     1.1440280000     2.2131170000 
*
