! RI PBE def2-SVP def2-SVP/J NBO PAL2
% maxcore 2000
% output
    # printlevel mini
    print[ P_Basis ] 0
    print[ P_SCFInfo ] 1
    print[ P_SCFIterInfo ] 1
    print[ P_OrbEn ] 0
    print[ P_Cartesian ] 0
end
*xyz 0 1
 N        0.9997310000    -0.2224110000    -1.5465440000 
 N        2.3614510000    -0.2420420000    -1.5034460000 
 C        2.9636710000     0.6716910000    -0.8603940000 
 C        4.4518030000     0.7660590000    -0.8586240000 
 C        4.9979570000     1.9955120000    -1.5894040000 
 C        4.7884680000     1.9703610000    -3.0952120000 
 O        3.4431060000     2.1183270000    -3.4895120000 
 H        0.6387970000    -1.1512800000    -1.6959740000 
 H        0.5495190000     0.2409500000    -0.7620760000 
 H        2.4016190000     1.4366710000    -0.3063380000 
 H        4.8536320000    -0.1462810000    -1.3090940000 
 H        4.7976500000     0.7947280000     0.1814280000 
 H        6.0740550000     2.0653680000    -1.3950580000 
 H        4.5440270000     2.9074840000    -1.1862520000 
 H        5.2211700000     1.0482670000    -3.5109760000 
 H        5.3254700000     2.8082920000    -3.5476840000 
 H        2.9620540000     1.3262930000    -3.2297480000 
*
