! RI PBE def2-SVP def2-SVP/J NBO PAL2
% maxcore 2000
% output
    # printlevel mini
    print[ P_Basis ] 0
    print[ P_SCFInfo ] 1
    print[ P_SCFIterInfo ] 1
    print[ P_OrbEn ] 0
    print[ P_Cartesian ] 0
end
*xyz 0 1
 N        0.8281250000    -0.0230340000    -0.4324840000 
 N        2.1652360000     0.0950840000    -0.3277000000 
 C        2.8974150000    -0.4477660000    -1.2227280000 
 C        4.3344200000    -0.4087060000    -1.1134090000 
 C        5.1710130000    -0.9432870000    -2.0077790000 
 C        6.6548040000    -0.9036880000    -1.8879100000 
 O        7.2298940000    -2.1992260000    -1.8857170000 
 H        0.3480760000     0.7076110000     0.0663860000 
 H        0.4573760000    -0.1920820000    -1.3627060000 
 H        2.4570870000    -0.9585170000    -2.0889920000 
 H        4.7245160000     0.1028920000    -0.2363510000 
 H        4.7749110000    -1.4632210000    -2.8785640000 
 H        6.9423550000    -0.3368310000    -0.9920030000 
 H        7.0966870000    -0.3978180000    -2.7519200000 
 H        6.8072940000    -2.7026090000    -1.1842020000 
*
