! RI PBE def2-SVP def2-SVP/J NBO PAL2
% maxcore 2000
% output
    # printlevel mini
    print[ P_Basis ] 0
    print[ P_SCFInfo ] 1
    print[ P_SCFIterInfo ] 1
    print[ P_OrbEn ] 0
    print[ P_Cartesian ] 0
end
*xyz 0 1
 N        0.5302350000     0.3167430000    -1.6003790000 
 N        1.1328660000    -0.3110110000    -0.5197240000 
 C        2.3468880000    -1.0815710000    -0.7015510000 
 C        2.1161820000    -2.2927390000    -1.5472820000 
 C        2.6737110000    -2.4932210000    -2.7329400000 
 C        0.5272620000    -0.2056440000     0.6921180000 
 O        0.9327340000    -0.7124350000     1.7124420000 
 H        0.3306660000    -0.3656670000    -2.3246550000 
 H        1.1587670000     1.0126190000    -1.9890670000 
 H        2.6715140000    -1.3653910000     0.3029700000 
 H        3.1184310000    -0.4448880000    -1.1503400000 
 H        1.4321870000    -3.0318630000    -1.1355410000 
 H        3.3618430000    -1.7708960000    -3.1626330000 
 H        2.4810100000    -3.3907600000    -3.3090590000 
 H       -0.3852040000     0.4099050000     0.6219600000 
*
