! RI PBE def2-SVP def2-SVP/J NBO PAL2
% maxcore 2000
% output
    # printlevel mini
    print[ P_Basis ] 0
    print[ P_SCFInfo ] 1
    print[ P_SCFIterInfo ] 1
    print[ P_OrbEn ] 0
    print[ P_Cartesian ] 0
end
*xyz 0 1
 N        1.0889690000    -0.3342890000    -0.0350310000 
 N        2.4389550000    -0.4044830000     0.2656340000 
 C        3.3652030000     0.5890460000    -0.2363030000 
 C        2.9694050000     1.9433850000     0.1263650000 
 C        2.6126700000     3.0518700000     0.4160710000 
 C        2.8596520000    -1.3833690000     1.1114150000 
 O        4.0030730000    -1.5369690000     1.4698350000 
 H        0.9486640000    -0.4283670000    -1.0354550000 
 H        0.7201730000     0.5651830000     0.2583330000 
 H        3.4466320000     0.5124190000    -1.3278950000 
 H        4.3410850000     0.3414280000     0.1904770000 
 H        2.3168510000     4.0396750000     0.6814510000 
 H        2.0156570000    -2.0231200000     1.4176940000 
*
