! RI PBE def2-SVP def2-SVP/J NBO PAL2
% maxcore 2000
% output
    # printlevel mini
    print[ P_Basis ] 0
    print[ P_SCFInfo ] 1
    print[ P_SCFIterInfo ] 1
    print[ P_OrbEn ] 0
    print[ P_Cartesian ] 0
end
*xyz 0 1
 N        1.0683990000    -0.2316120000     0.0523720000 
 N        2.3955760000    -0.0040060000     0.0990010000 
 C        2.8289670000     1.1794340000    -0.1390650000 
 C        1.9117900000     2.3229160000    -0.4701680000 
 O        0.9819000000     2.5308790000     0.5894810000 
 C        4.2736410000     1.4177180000    -0.1650600000 
 C        5.2230460000     0.4858640000    -0.1178140000 
 H        0.4816000000     0.5400170000     0.3527660000 
 H        0.8406700000    -1.1089120000     0.4904930000 
 H        1.3756130000     2.0726710000    -1.3988500000 
 H        2.4977840000     3.2300030000    -0.6500260000 
 H        0.3640010000     3.2140030000     0.3168260000 
 H        4.5686850000     2.4619790000    -0.2323880000 
 H        4.9713460000    -0.5664640000    -0.0565010000 
 H        6.2709010000     0.7585110000    -0.1333690000 
*
