! RI PBE def2-SVP def2-SVP/J NBO PAL2
% maxcore 2000
% output
    # printlevel mini
    print[ P_Basis ] 0
    print[ P_SCFInfo ] 1
    print[ P_SCFIterInfo ] 1
    print[ P_OrbEn ] 0
    print[ P_Cartesian ] 0
end
*xyz 0 1
 N        1.0671290000    -0.5529940000    -0.1389880000 
 N        2.4244540000    -0.4522960000    -0.1456050000 
 C        3.0238930000    -0.5342190000     0.9864590000 
 C        2.2930770000    -0.7519970000     2.2917710000 
 O        1.5765420000    -1.9647550000     2.3109000000 
 C        4.4428450000    -0.4509230000     1.0041500000 
 C        5.6390220000    -0.3717640000     1.1017440000 
 H        0.5934960000    -0.1008240000     0.6399130000 
 H        0.6985900000    -0.2419860000    -1.0242950000 
 H        1.6288660000     0.1092220000     2.4849060000 
 H        3.0076870000    -0.7879390000     3.1129160000 
 H        1.1337050000    -2.0684590000     1.4603310000 
 H        6.6994940000    -0.3069870000     1.1646990000 
*
