! RI PBE def2-SVP def2-SVP/J NBO PAL2
% maxcore 2000
% output
    # printlevel mini
    print[ P_Basis ] 0
    print[ P_SCFInfo ] 1
    print[ P_SCFIterInfo ] 1
    print[ P_OrbEn ] 0
    print[ P_Cartesian ] 0
end
*xyz 0 1
 N        0.7526490000     0.2533640000     1.4163080000 
 N        2.1052620000     0.3083610000     1.3199270000 
 C        2.7789560000    -0.7515370000     1.1716830000 
 C        4.2807990000    -0.6589980000     1.1580600000 
 O        4.7037660000     0.6710840000     1.2798560000 
 C        4.8539850000    -1.5015000000     2.2623140000 
 C        5.5313190000    -2.6227430000     2.0681100000 
 H        0.3390490000     1.1244330000     1.1241480000 
 H        0.3216560000    -0.5470960000     0.9645660000 
 H        2.3239600000    -1.7419060000     1.0696670000 
 H        4.6335530000    -1.0702620000     0.1987390000 
 H        3.8958210000     1.1988040000     1.3712280000 
 H        4.6710830000    -1.1251940000     3.2661370000 
 H        5.7329470000    -2.9939010000     1.0675610000 
 H        5.9160050000    -3.2071980000     2.8956860000 
*
