! RI PBE def2-SVP def2-SVP/J NBO PAL2
% maxcore 2000
% output
    # printlevel mini
    print[ P_Basis ] 0
    print[ P_SCFInfo ] 1
    print[ P_SCFIterInfo ] 1
    print[ P_OrbEn ] 0
    print[ P_Cartesian ] 0
end
*xyz 0 1
 N        5.2561980000    -1.2138120000    -2.1182180000 
 N        5.2104580000     0.0599700000    -1.5816480000 
 C        4.1157360000     0.6798900000    -1.6385380000 
 O        3.9126080000     1.8848310000    -1.0770610000 
 C        5.0088870000     2.4469740000    -0.4080500000 
 C        5.9009700000     3.3699710000    -1.1619290000 
 C        4.9151480000     3.9043080000    -0.1542950000 
 H        6.2026690000    -1.3947460000    -2.4189440000 
 H        4.6248640000    -1.3410980000    -2.9055210000 
 H        3.2071510000     0.3159960000    -2.1240670000 
 H        5.4455570000     1.7909050000     0.3359800000 
 H        5.6670580000     3.5265160000    -2.2072880000 
 H        6.9566530000     3.3714460000    -0.9219730000 
 H        4.0395960000     4.4102290000    -0.5412940000 
 H        5.2818450000     4.2827110000     0.7913480000 
*
