! RI PBE def2-SVP def2-SVP/J NBO PAL2
% maxcore 2000
% output
    # printlevel mini
    print[ P_Basis ] 0
    print[ P_SCFInfo ] 1
    print[ P_SCFIterInfo ] 1
    print[ P_OrbEn ] 0
    print[ P_Cartesian ] 0
end
*xyz 0 1
 N        1.1606330000     0.1510580000     2.2328320000 
 N        2.5012540000     0.4789650000     2.0796090000 
 C        3.1391450000     0.4217530000     0.8825260000 
 O        2.5683260000     0.0715300000    -0.1342140000 
 C        4.5715440000     0.8164600000     0.9203830000 
 C        5.5000300000     0.1042160000    -0.0273180000 
 C        5.1192440000     1.5128470000    -0.2971670000 
 H        1.0277620000    -0.8040410000     1.9146080000 
 H        0.6165520000     0.7325320000     1.6026690000 
 H        2.9784680000     0.7757680000     2.9120600000 
 H        4.9729140000     1.1095230000     1.8841970000 
 H        5.0441040000    -0.6588400000    -0.6451120000 
 H        6.5002950000    -0.1084900000     0.3276210000 
 H        4.4097550000     1.6901320000    -1.0952700000 
 H        5.8513650000     2.2929970000    -0.1323130000 
*
