! RI PBE def2-SVP def2-SVP/J NBO PAL2
% maxcore 2000
% output
    # printlevel mini
    print[ P_Basis ] 0
    print[ P_SCFInfo ] 1
    print[ P_SCFIterInfo ] 1
    print[ P_OrbEn ] 0
    print[ P_Cartesian ] 0
end
*xyz 0 1
 N        1.3278050000    -0.4850230000     1.3684600000 
 N        2.6671260000    -0.7105320000     1.6307850000 
 C        3.5036600000    -0.3526740000     0.7585570000 
 O        4.8297800000    -0.4496640000     0.9249390000 
 C        5.2631020000    -0.9760890000     2.1645330000 
 C        6.7484780000    -1.0144070000     2.2155850000 
 C        7.5736690000    -0.6191560000     1.2588090000 
 H        0.7881910000    -1.1706260000     1.8759600000 
 H        1.0976590000    -0.5443380000     0.3797020000 
 H        3.2570750000     0.0777230000    -0.2148110000 
 H        4.8443710000    -1.9810410000     2.3041390000 
 H        4.8609160000    -0.3661470000     2.9832860000 
 H        7.1466620000    -1.4118440000     3.1463520000 
 H        7.2028580000    -0.2190660000     0.3230890000 
 H        8.6472380000    -0.6850350000     1.3874350000 
*
