! RI PBE def2-SVP def2-SVP/J NBO PAL2
% maxcore 2000
% output
    # printlevel mini
    print[ P_Basis ] 0
    print[ P_SCFInfo ] 1
    print[ P_SCFIterInfo ] 1
    print[ P_OrbEn ] 0
    print[ P_Cartesian ] 0
end
*xyz 0 1
 N        0.9357180000    -1.2817940000     1.8125160000 
 N        2.3006480000    -1.4788060000     1.7247980000 
 C        2.8832250000    -1.1198600000     0.6668230000 
 O        4.2129760000    -1.1954910000     0.5003840000 
 C        4.9280400000    -1.7033430000     1.6198860000 
 C        6.3443080000    -1.7241170000     1.3088110000 
 C        7.5223370000    -1.7566370000     1.0883510000 
 H        0.5581520000    -1.9641000000     2.4532080000 
 H        0.4597680000    -1.3611870000     0.9176790000 
 H        2.3979990000    -0.7068610000    -0.2199250000 
 H        4.5698380000    -2.7099820000     1.8618720000 
 H        4.7316950000    -1.0783270000     2.4977190000 
 H        8.5671870000    -1.7820950000     0.8869870000 
*
