! RI PBE def2-SVP def2-SVP/J NBO PAL2
% maxcore 2000
% output
    # printlevel mini
    print[ P_Basis ] 0
    print[ P_SCFInfo ] 1
    print[ P_SCFIterInfo ] 1
    print[ P_OrbEn ] 0
    print[ P_Cartesian ] 0
end
*xyz 0 1
 O       -1.1349840000     0.7308980000     0.7552240000 
 C       -1.0841330000    -0.3648600000    -0.1378840000 
 C       -0.1138940000    -1.4047490000     0.2082550000 
 N        1.1372300000    -1.2147130000     0.3938220000 
 N        1.7128790000     0.0136320000     0.0812970000 
 C        0.9938610000     0.9590260000    -0.3931520000 
 C       -0.4677030000     0.9505050000    -0.4725480000 
 H       -2.0410230000    -0.6496150000    -0.5653820000 
 H       -0.4587250000    -2.4315400000     0.3155830000 
 H        1.5362040000     1.8253230000    -0.7674780000 
 H       -0.9689110000     1.6381040000    -1.1474380000 
*
