! RI PBE def2-SVP def2-SVP/J NBO PAL2
% maxcore 2000
% output
    # printlevel mini
    print[ P_Basis ] 0
    print[ P_SCFInfo ] 1
    print[ P_SCFIterInfo ] 1
    print[ P_OrbEn ] 0
    print[ P_Cartesian ] 0
end
*xyz 0 1
 O        0.7405520000    -1.0189080000    -0.7731690000 
 C       -0.4029700000    -1.4461490000    -0.1500670000 
 C       -1.3772270000    -0.6034800000     0.1971880000 
 C       -1.2970370000     0.8084800000    -0.1209030000 
 N       -0.2441330000     1.5393400000    -0.1721310000 
 N        0.9306490000     1.0565530000     0.3169930000 
 C        1.3751430000    -0.0821710000     0.0331030000 
 H       -0.4476070000    -2.5201020000     0.0037750000 
 H       -2.2869580000    -1.0072740000     0.6259610000 
 H       -2.2207070000     1.3214050000    -0.3832340000 
 H        2.3361860000    -0.4090950000     0.4178940000 
*
