! RI PBE def2-SVP def2-SVP/J NBO PAL2
% maxcore 2000
% output
    # printlevel mini
    print[ P_Basis ] 0
    print[ P_SCFInfo ] 1
    print[ P_SCFIterInfo ] 1
    print[ P_OrbEn ] 0
    print[ P_Cartesian ] 0
end
*xyz 0 1
 O        0.9272000000    -0.0483170000    -0.0957120000 
 C        2.3073590000     0.0543450000    -0.0676160000 
 C        3.2739760000    -0.5515760000    -1.1075250000 
 N        4.3249940000    -0.3565420000    -0.0558330000 
 C        3.2403410000    -0.6581770000     0.9347560000 
 C        4.3310170000     1.1297830000     0.0218450000 
 C        2.8248030000     1.4838390000     0.0155160000 
 H        0.6861510000    -0.9770190000    -0.1479730000 
 H        3.4483770000    -0.0255220000    -2.0493720000 
 H        3.1154160000    -1.6178090000    -1.2850530000 
 H        3.3828130000    -0.2333090000     1.9314580000 
 H        3.0778670000    -1.7368230000     0.9950440000 
 H        4.8743960000     1.5337400000    -0.8335970000 
 H        4.8453080000     1.4415790000     0.9320700000 
 H        2.5132110000     2.0769940000    -0.8462710000 
 H        2.4840590000     1.9846150000     0.9236540000 
*
