! RI PBE def2-SVP def2-SVP/J NBO PAL2
% maxcore 2000
% output
    # printlevel mini
    print[ P_Basis ] 0
    print[ P_SCFInfo ] 1
    print[ P_SCFIterInfo ] 1
    print[ P_OrbEn ] 0
    print[ P_Cartesian ] 0
end
*xyz 0 1
 O        1.0438140000     0.0330240000    -0.2089100000 
 C        2.4252180000     0.0743880000    -0.1323640000 
 C        3.3845940000    -0.5461090000    -1.1793000000 
 C        4.3928060000    -0.2847120000    -0.0384800000 
 C        3.2679720000    -0.6603230000     0.9394080000 
 N        4.4244520000     1.1792470000     0.1085490000 
 C        2.9807190000     1.4897070000    -0.0126130000 
 H        0.7637610000    -0.8850120000    -0.2433230000 
 H        3.5289390000    -0.0210830000    -2.1269760000 
 H        3.1885000000    -1.6076080000    -1.3450340000 
 H        5.3727050000    -0.7549520000    -0.0010880000 
 H        3.3122740000    -0.2411100000     1.9454300000 
 H        3.0726560000    -1.7338360000     0.9582860000 
 H        4.9379660000     1.5928030000    -0.6601810000 
 H        2.7387810000     2.0909920000    -0.8933950000 
 H        2.5986440000     2.0007630000     0.8751910000 
*
