! RI PBE def2-SVP def2-SVP/J NBO PAL2
% maxcore 2000
% output
    # printlevel mini
    print[ P_Basis ] 0
    print[ P_SCFInfo ] 1
    print[ P_SCFIterInfo ] 1
    print[ P_OrbEn ] 0
    print[ P_Cartesian ] 0
end
*xyz 0 1
 O        1.1586350000     0.0381480000     0.0846560000 
 C        2.5437820000    -0.0510030000    -0.0475280000 
 C        3.0977440000    -1.0351110000    -1.1057240000 
 C        4.6090330000    -0.8289610000    -0.9376890000 
 C        4.6134020000     0.7256760000    -0.9242550000 
 C        3.1031780000     0.9444940000    -1.0782100000 
 N        2.6902570000    -0.0323960000    -2.1192310000 
 H        0.8220260000    -0.8097580000     0.3840770000 
 H        3.0437670000    -0.0687090000     0.9296950000 
 H        2.7194320000    -2.0535540000    -1.2107450000 
 H        5.1708370000    -1.2520200000    -1.7731870000 
 H        5.0012780000    -1.2644900000    -0.0151840000 
 H        5.1702980000     1.1588520000    -1.7576310000 
 H        5.0146370000     1.1440590000     0.0018480000 
 H        2.7198640000     1.9617890000    -1.1496510000 
 H        3.2931200000    -0.0234260000    -2.9397220000 
*
