! RI PBE def2-SVP def2-SVP/J NBO PAL2
% maxcore 2000
% output
    # printlevel mini
    print[ P_Basis ] 0
    print[ P_SCFInfo ] 1
    print[ P_SCFIterInfo ] 1
    print[ P_OrbEn ] 0
    print[ P_Cartesian ] 0
end
*xyz 0 1
 O        1.0288080000    -0.0033310000     0.0352590000 
 C        2.4266310000     0.0826100000    -0.0159420000 
 C        3.0103630000     1.1256650000    -1.0108020000 
 C        2.6144190000     0.1289530000    -2.1261030000 
 C        3.0260290000    -0.8927460000    -1.0420100000 
 N        4.4570050000    -0.6592120000    -0.8206460000 
 C        4.4968280000     0.8290910000    -0.8460880000 
 H        0.6961720000     0.7651080000     0.5052730000 
 H        2.8759410000     0.0495000000     0.9839980000 
 H        2.6967170000     2.1700070000    -1.0088670000 
 H        3.1932200000     0.1406730000    -3.0532400000 
 H        1.5455600000     0.1323160000    -2.3277420000 
 H        2.7432160000    -1.9439700000    -1.0642760000 
 H        4.9918410000    -1.0391690000    -1.5913230000 
 H        5.0950850000     1.2222480000    -1.6732870000 
 H        4.9052840000     1.2235560000     0.0892060000 
*
