! RI PBE def2-SVP def2-SVP/J NBO PAL2
% maxcore 2000
% output
    # printlevel mini
    print[ P_Basis ] 0
    print[ P_SCFInfo ] 1
    print[ P_SCFIterInfo ] 1
    print[ P_OrbEn ] 0
    print[ P_Cartesian ] 0
end
*xyz 0 1
 O        0.6285670000     0.0327320000    -0.3425960000 
 C        1.9812390000     0.0807590000     0.0060390000 
 C        2.9963740000    -0.8545020000    -0.5803640000 
 C        2.6057550000    -1.6303340000    -1.8236220000 
 N        2.0204520000    -0.6797970000    -2.7663930000 
 C        2.5681580000     0.6343840000    -2.4397020000 
 C        2.9674130000     0.6052440000    -0.9767900000 
 H        0.2220550000    -0.6910470000     0.1415330000 
 H        2.1558170000     0.3744370000     1.0394690000 
 H        3.7679010000    -1.2568900000     0.0665390000 
 H        1.8975470000    -2.4420100000    -1.6317830000 
 H        3.5071560000    -2.0865470000    -2.2496410000 
 H        1.0278710000    -0.6410000000    -2.5827530000 
 H        1.8342580000     1.4091930000    -2.6743520000 
 H        3.4622990000     0.8372860000    -3.0408550000 
 H        3.7164380000     1.3071930000    -0.6291370000 
*
