! RI PBE def2-SVP def2-SVP/J NBO PAL2
% maxcore 2000
% output
    # printlevel mini
    print[ P_Basis ] 0
    print[ P_SCFInfo ] 1
    print[ P_SCFIterInfo ] 1
    print[ P_OrbEn ] 0
    print[ P_Cartesian ] 0
end
*xyz 0 1
 O        0.9500360000    -0.1923200000    -0.4097330000 
 C        2.2189140000     0.1721460000     0.0166550000 
 C        3.4998050000    -0.5422710000    -0.5402920000 
 N        4.1725430000     0.7377810000    -0.1826510000 
 C        2.9209660000     1.3449610000    -0.7188190000 
 C        2.8712400000     0.8487090000    -2.1666020000 
 C        3.2629400000    -0.4178370000    -2.0448550000 
 H        0.5097390000    -0.6613690000     0.3012480000 
 H        2.2771150000     0.2914430000     1.1018920000 
 H        3.8983470000    -1.4687470000    -0.1283790000 
 H        4.9613080000     0.9213690000    -0.7993790000 
 H        2.7133320000     2.3910680000    -0.4981620000 
 H        2.5365880000     1.3960360000    -3.0354610000 
 H        3.3351260000    -1.1987590000    -2.7876630000 
*
