! RI PBE def2-SVP def2-SVP/J NBO PAL2
% maxcore 2000
% output
    # printlevel mini
    print[ P_Basis ] 0
    print[ P_SCFInfo ] 1
    print[ P_SCFIterInfo ] 1
    print[ P_OrbEn ] 0
    print[ P_Cartesian ] 0
end
*xyz 0 1
 O        1.4405660000     0.0413590000     1.0109780000 
 C        2.5850610000     0.1347660000     0.2304610000 
 C        2.4495070000     0.8163360000    -1.1030170000 
 N        3.6556000000     1.1559370000    -1.7900230000 
 C        4.3933980000     0.0037620000    -1.9139370000 
 N        3.8205310000    -1.0844720000    -1.5710620000 
 C        2.5577570000    -0.7054520000    -1.0040330000 
 H        1.2348440000     0.9142410000     1.3578670000 
 H        3.5337900000     0.2161730000     0.7607340000 
 H        1.5408560000     1.3495260000    -1.3574050000 
 H        4.0923740000     2.0569090000    -1.6957970000 
 H        5.3925510000     0.0489810000    -2.3346690000 
 H        1.7135870000    -1.3696660000    -1.1380870000 
*
