! RI PBE def2-SVP def2-SVP/J NBO PAL2
% maxcore 2000
% output
    # printlevel mini
    print[ P_Basis ] 0
    print[ P_SCFInfo ] 1
    print[ P_SCFIterInfo ] 1
    print[ P_OrbEn ] 0
    print[ P_Cartesian ] 0
end
*xyz 0 1
 O        1.2588580000    -0.0850690000     0.8292970000 
 C        2.4992130000    -0.0775320000     0.2082860000 
 C        2.6127520000     0.6630990000    -1.0779980000 
 O        3.8995940000     1.0129670000    -1.5174080000 
 N        4.6303990000    -0.1399020000    -1.7576550000 
 C        3.8907930000    -1.1586450000    -1.5568150000 
 C        2.5345710000    -0.8452900000    -1.0872130000 
 H        1.1194760000     0.7719520000     1.2432410000 
 H        3.3717100000    -0.1358660000     0.8558650000 
 H        1.8273730000     1.3282480000    -1.4151590000 
 H        4.2976200000    -2.1432660000    -1.7456850000 
 H        1.6663520000    -1.4223760000    -1.3773660000 
*
