! RI PBE def2-SVP def2-SVP/J NBO PAL2
% maxcore 2000
% output
    # printlevel mini
    print[ P_Basis ] 0
    print[ P_SCFInfo ] 1
    print[ P_SCFIterInfo ] 1
    print[ P_OrbEn ] 0
    print[ P_Cartesian ] 0
end
*xyz 0 1
 O        1.0262760000    -0.1176820000     0.2767120000 
 C        2.3895830000    -0.2180720000     0.0140930000 
 C        2.8549450000    -0.4653860000    -1.3865280000 
 C        2.9943670000     0.9000990000    -0.7600230000 
 C        4.3315040000     1.4369860000    -0.4023440000 
 C        4.8111500000     2.6959870000    -1.0031730000 
 N        4.4449190000     2.6433400000     0.4108460000 
 H        0.6480500000    -1.0008340000     0.2480300000 
 H        2.9861000000    -0.6381500000     0.8221640000 
 H        2.0933650000    -0.5822250000    -2.1474800000 
 H        3.7525450000    -1.0545120000    -1.5355050000 
 H        2.2748580000     1.6383400000    -1.1044640000 
 H        5.0718380000     0.6801270000    -0.1511520000 
 H        4.1442520000     3.2006980000    -1.6961060000 
 H        5.8676670000     2.8444780000    -1.1990380000 
 H        3.5252700000     3.0491060000     0.5523600000 
*
