! RI PBE def2-SVP def2-SVP/J NBO PAL2
% maxcore 2000
% output
    # printlevel mini
    print[ P_Basis ] 0
    print[ P_SCFInfo ] 1
    print[ P_SCFIterInfo ] 1
    print[ P_OrbEn ] 0
    print[ P_Cartesian ] 0
end
*xyz 0 1
 O        0.9245790000     0.4720280000    -0.2514720000 
 C        2.2719620000     0.1901100000     0.0014570000 
 C        3.0274390000    -0.5903650000    -1.0283880000 
 C        3.2602870000     0.8892230000    -0.8690410000 
 C        2.6058030000     0.0056190000     1.4471610000 
 C        1.9007650000     0.7820380000     2.4801480000 
 N        1.6759760000    -0.6602770000     2.3484250000 
 H        0.4855780000    -0.3471470000    -0.4938380000 
 H        2.4835760000    -0.9112160000    -1.9092400000 
 H        3.7933080000    -1.2773230000    -0.6891820000 
 H        2.8497710000     1.5401800000    -1.6298640000 
 H        4.1908370000     1.2224430000    -0.4258930000 
 H        3.6464720000    -0.2569980000     1.6207750000 
 H        1.1149290000     1.4485910000     2.1419120000 
 H        2.4211620000     1.0867580000     3.3814170000 
 H        0.7912570000    -0.8012620000     1.8698130000 
*
