! RI PBE def2-SVP def2-SVP/J NBO PAL2
% maxcore 2000
% output
    # printlevel mini
    print[ P_Basis ] 0
    print[ P_SCFInfo ] 1
    print[ P_SCFIterInfo ] 1
    print[ P_OrbEn ] 0
    print[ P_Cartesian ] 0
end
*xyz 0 1
 O        1.1088550000    -0.3057390000     0.2829690000 
 C        2.4786200000    -0.3752200000     0.0447790000 
 C        2.9831390000    -0.5125330000    -1.3618990000 
 C        3.0928740000     0.7952190000    -0.6299300000 
 N        4.3877410000     1.2133010000    -0.2000650000 
 C        4.9581900000     2.3445970000    -0.9033410000 
 C        4.4522130000     2.4914740000     0.4797820000 
 H        0.7373190000    -1.1822620000     0.1520450000 
 H        3.0722970000    -0.8388030000     0.8289680000 
 H        2.2445210000    -0.5750970000    -2.1515610000 
 H        3.8963780000    -1.0725830000    -1.5190160000 
 H        2.3897070000     1.5734640000    -0.9349870000 
 H        4.3677340000     2.7940540000    -1.6978260000 
 H        6.0243470000     2.2935200000    -1.0959340000 
 H        3.5225490000     3.0384430000     0.6138150000 
 H        5.1429250000     2.5480740000     1.3139820000 
*
