! RI PBE def2-SVP def2-SVP/J NBO PAL2
% maxcore 2000
% output
    # printlevel mini
    print[ P_Basis ] 0
    print[ P_SCFInfo ] 1
    print[ P_SCFIterInfo ] 1
    print[ P_OrbEn ] 0
    print[ P_Cartesian ] 0
end
*xyz 0 1
 O        0.5388610000    -0.2026230000    -0.3133810000 
 C        1.8941250000    -0.3853490000    -0.0682010000 
 C        2.7493070000    -1.0398650000    -1.1103890000 
 C        2.8197390000     0.4444560000    -0.8807460000 
 N        3.9974840000     0.9430640000    -0.2575880000 
 N        3.8484580000     2.0694880000     0.4673240000 
 C        4.8621200000     2.8038740000     0.6734440000 
 H        0.1007030000    -1.0535020000    -0.2287780000 
 H        2.1747630000    -0.5295860000     0.9715550000 
 H        2.2630640000    -1.3705220000    -2.0194050000 
 H        3.5866790000    -1.6400600000    -0.7763570000 
 H        2.3363050000     1.0720940000    -1.6274600000 
 H        4.8302450000     0.9064230000    -0.8405080000 
 H        4.7368590000     3.6790610000     1.2991780000 
 H        5.8530000000     2.5881580000     0.2589040000 
*
