! RI PBE def2-SVP def2-SVP/J NBO PAL2
% maxcore 2000
% output
    # printlevel mini
    print[ P_Basis ] 0
    print[ P_SCFInfo ] 1
    print[ P_SCFIterInfo ] 1
    print[ P_OrbEn ] 0
    print[ P_Cartesian ] 0
end
*xyz 0 1
 O        0.9506980000     0.3027600000     0.3182950000 
 C        2.2484630000    -0.1823660000     0.2138240000 
 C        2.6763990000    -0.9534040000    -1.0044000000 
 C        3.1135590000     0.4638970000    -0.7943380000 
 O        4.4211840000     0.7246560000    -0.3864020000 
 N        5.2741550000     0.6803220000    -1.4697160000 
 C        6.4627630000     0.9526740000    -1.1372900000 
 H        0.3660520000    -0.4403880000     0.4899090000 
 H        2.7314650000    -0.4493460000     1.1513900000 
 H        1.9419150000    -1.1258310000    -1.7814020000 
 H        3.4167710000    -1.7320490000    -0.8708870000 
 H        2.6667320000     1.2304900000    -1.4189530000 
 H        7.2004850000     0.9430060000    -1.9303880000 
 H        6.7504790000     1.1887800000    -0.1136430000 
*
