! RI PBE def2-SVP def2-SVP/J NBO PAL2
% maxcore 2000
% output
    # printlevel mini
    print[ P_Basis ] 0
    print[ P_SCFInfo ] 1
    print[ P_SCFIterInfo ] 1
    print[ P_OrbEn ] 0
    print[ P_Cartesian ] 0
end
*xyz 0 1
 O        1.0947730000     0.0639680000     0.0026800000 
 C        2.5038590000    -0.0298080000    -0.0574350000 
 C        3.1025350000    -1.1607010000     0.8184490000 
 C        3.8431290000    -0.2735840000     1.8297550000 
 C        4.5601510000     0.7244810000     0.9019980000 
 C        3.1035490000     1.1639650000     0.6904830000 
 N        2.8937960000     0.8318190000     2.1212080000 
 H        0.7179740000    -0.7416260000    -0.3590400000 
 H        2.8396670000    -0.0749370000    -1.1008450000 
 H        3.7639640000    -1.8344610000     0.2683480000 
 H        2.3137710000    -1.7532980000     1.2895060000 
 H        4.3378310000    -0.7550670000     2.6733800000 
 H        5.1199370000     0.3332220000     0.0510360000 
 H        5.1293720000     1.4693980000     1.4544970000 
 H        2.8202040000     2.1567510000     0.3425320000 
 H        1.9433980000     0.5152760000     2.3065570000 
*
