! RI PBE def2-SVP def2-SVP/J NBO PAL2
% maxcore 2000
% output
    # printlevel mini
    print[ P_Basis ] 0
    print[ P_SCFInfo ] 1
    print[ P_SCFIterInfo ] 1
    print[ P_OrbEn ] 0
    print[ P_Cartesian ] 0
end
*xyz 0 1
 O        0.9115020000     0.0508470000     0.1570360000 
 C        2.1126640000    -0.0183660000     0.0540550000 
 C        2.9525570000    -1.2886640000    -0.0493830000 
 C        4.3427220000    -0.8126460000    -0.3863990000 
 C        4.5430190000    -0.0056650000    -1.6399190000 
 C        4.3153360000     0.6874600000    -0.3297860000 
 N        2.9713210000     1.0422910000    -0.0146350000 
 H        2.5053620000    -1.9489530000    -0.7949890000 
 H        2.9185900000    -1.8106190000     0.9104860000 
 H        5.1945320000    -1.3486630000     0.0103180000 
 H        3.7406960000     0.0310810000    -2.3687110000 
 H        5.5431850000     0.0128660000    -2.0556730000 
 H        5.0996420000     1.2632570000     0.1453180000 
 H        2.6013930000     1.9684830000    -0.1523290000 
*
