! RI PBE def2-SVP def2-SVP/J NBO PAL2
% maxcore 2000
% output
    # printlevel mini
    print[ P_Basis ] 0
    print[ P_SCFInfo ] 1
    print[ P_SCFIterInfo ] 1
    print[ P_OrbEn ] 0
    print[ P_Cartesian ] 0
end
*xyz 0 1
 O        1.2086280000     0.0368160000     0.7980390000 
 C        2.5166620000     0.0183680000     0.2627750000 
 C        2.9031150000    -1.3758170000    -0.2476830000 
 C        2.3803450000    -1.3736050000    -1.6707270000 
 C        3.2104970000    -0.7644740000    -2.7233400000 
 N        2.1548980000     0.0229110000    -2.1025530000 
 C        2.6220270000     0.8763040000    -0.9956920000 
 H        0.5911720000    -0.1314240000     0.0790030000 
 H        3.1667120000     0.3691860000     1.0672120000 
 H        2.4463300000    -2.1491900000     0.3701250000 
 H        3.9875350000    -1.5144860000    -0.2141720000 
 H        1.6059290000    -2.0820890000    -1.9469100000 
 H        3.0494380000    -1.0146310000    -3.7671680000 
 H        4.2395110000    -0.5204350000    -2.4668440000 
 H        1.9868650000     1.7607670000    -0.9180860000 
 H        3.6527450000     1.2117980000    -1.1565790000 
*
