! RI PBE def2-SVP def2-SVP/J NBO PAL2
% maxcore 2000
% output
    # printlevel mini
    print[ P_Basis ] 0
    print[ P_SCFInfo ] 1
    print[ P_SCFIterInfo ] 1
    print[ P_OrbEn ] 0
    print[ P_Cartesian ] 0
end
*xyz 0 1
 O        1.9724720000     0.1601410000     1.6372580000 
 C        2.5813640000     0.0095120000     0.6158200000 
 C        2.9907170000    -1.3195890000    -0.0027760000 
 C        3.9443920000    -0.9376320000    -1.0988030000 
 C        5.1108350000    -0.1207450000    -0.7145260000 
 N        3.9480060000     0.5263550000    -1.3049020000 
 C        3.0638060000     1.1161960000    -0.3139080000 
 H        2.0892640000    -1.8030140000    -0.3939420000 
 H        3.4079860000    -1.9791000000     0.7603700000 
 H        3.9803730000    -1.5359820000    -2.0021720000 
 H        6.0019160000    -0.1152870000    -1.3321310000 
 H        5.2932170000     0.0234700000     0.3494430000 
 H        2.1893930000     1.5523920000    -0.8099430000 
 H        3.5494700000     1.9142820000     0.2522140000 
*
