! RI PBE def2-SVP def2-SVP/J NBO PAL2
% maxcore 2000
% output
    # printlevel mini
    print[ P_Basis ] 0
    print[ P_SCFInfo ] 1
    print[ P_SCFIterInfo ] 1
    print[ P_OrbEn ] 0
    print[ P_Cartesian ] 0
end
*xyz 0 1
 O        1.5914200000     0.2128980000     1.1850040000 
 C        2.4018170000    -0.0099070000     0.3188480000 
 C        2.9662740000    -1.3638280000    -0.1004510000 
 C        3.8948710000    -1.0342700000    -1.2357180000 
 C        5.0484180000    -0.1499490000    -0.9759790000 
 N        3.8037540000     0.4141820000    -1.5210210000 
 N        2.9943940000     0.9137810000    -0.4851730000 
 H        2.1356470000    -1.9981940000    -0.4163850000 
 H        3.4456340000    -1.8467660000     0.7526600000 
 H        3.9042800000    -1.6711660000    -2.1122610000 
 H        5.8816650000    -0.1431720000    -1.6684990000 
 H        5.2799500000     0.1026530000     0.0529800000 
 H        2.6494740000     1.8531480000    -0.5867050000 
*
