! RI PBE def2-SVP def2-SVP/J NBO PAL2
% maxcore 2000
% output
    # printlevel mini
    print[ P_Basis ] 0
    print[ P_SCFInfo ] 1
    print[ P_SCFIterInfo ] 1
    print[ P_OrbEn ] 0
    print[ P_Cartesian ] 0
end
*xyz 0 1
 O        1.9131540000     0.0323870000     1.5740110000 
 C        2.5778830000     0.0015570000     0.5771770000 
 C        3.0356650000    -1.2676400000    -0.1369190000 
 C        4.0371610000    -0.7985170000    -1.1512330000 
 N        5.1411770000    -0.0580280000    -0.5411440000 
 C        4.0575780000     0.6852260000    -1.1834890000 
 C        3.0702100000     1.2254530000    -0.1909650000 
 H        2.1611740000    -1.7290100000    -0.6088180000 
 H        3.4368920000    -1.9772340000     0.5890490000 
 H        4.2231060000    -1.3776820000    -2.0481910000 
 H        5.9581790000    -0.0820470000    -1.1412000000 
 H        4.2588720000     1.2195760000    -2.1046220000 
 H        2.2085590000     1.6899760000    -0.6829420000 
 H        3.4913890000     1.9544740000     0.5037940000 
*
