! RI PBE def2-SVP def2-SVP/J NBO PAL2
% maxcore 2000
% output
    # printlevel mini
    print[ P_Basis ] 0
    print[ P_SCFInfo ] 1
    print[ P_SCFIterInfo ] 1
    print[ P_OrbEn ] 0
    print[ P_Cartesian ] 0
end
*xyz 0 1
 O        1.5365810000    -0.0667210000     1.2269760000 
 C        2.4497730000    -0.0662450000     0.4644780000 
 C        3.2813750000     1.0368590000    -0.1808210000 
 C        4.2874640000    -0.0653370000    -0.6224030000 
 C        3.2822360000    -1.1684580000    -0.1811900000 
 C        4.6827340000    -0.0649490000    -2.0138150000 
 N        4.9789690000    -0.0648450000    -3.1252710000 
 H        3.6558730000     1.8190420000     0.4796430000 
 H        2.7562260000     1.4976260000    -1.0207840000 
 H        5.1834160000    -0.0650770000     0.0004130000 
 H        3.6572890000    -1.9507280000     0.4788530000 
 H        2.7573650000    -1.6291560000    -1.0213800000 
*
