! RI PBE def2-SVP def2-SVP/J NBO PAL2
% maxcore 2000
% output
    # printlevel mini
    print[ P_Basis ] 0
    print[ P_SCFInfo ] 1
    print[ P_SCFIterInfo ] 1
    print[ P_OrbEn ] 0
    print[ P_Cartesian ] 0
end
*xyz 0 1
 O        1.6730950000     1.1927410000    -0.8959860000 
 C        2.5253140000     0.5662410000    -0.3618930000 
 C        3.7348150000     0.8988090000     0.4950820000 
 C        4.2707900000    -0.5242500000     0.2209100000 
 C        2.8923410000    -0.9453830000    -0.3605970000 
 C        2.8421050000    -1.6720030000    -1.6045590000 
 N        2.8267450000    -2.2325920000    -2.6088200000 
 H        3.4444510000     1.0665760000     1.5358600000 
 H        4.3294680000     1.7480840000     0.1575110000 
 H        5.0462770000    -0.5374180000    -0.5431860000 
 H        4.6030810000    -1.0975830000     1.0833870000 
 H        2.2747270000    -1.4508320000     0.3893010000 
*
