! RI PBE def2-SVP def2-SVP/J NBO PAL2
% maxcore 2000
% output
    # printlevel mini
    print[ P_Basis ] 0
    print[ P_SCFInfo ] 1
    print[ P_SCFIterInfo ] 1
    print[ P_OrbEn ] 0
    print[ P_Cartesian ] 0
end
*xyz 0 1
 O        1.8962960000     0.4070310000     1.0425020000 
 C        2.7362130000     0.0178600000     0.2881210000 
 C        2.7951190000    -1.3638820000    -0.3544020000 
 C        4.1268450000    -1.4233410000    -1.0945030000 
 C        4.6167890000     0.0118850000    -1.0877210000 
 C        3.7376380000     1.0686500000    -1.6010410000 
 N        3.8344750000     0.8201870000    -0.1475710000 
 H        1.9256940000    -1.4570080000    -1.0102600000 
 H        2.6827310000    -2.1274720000     0.4155970000 
 H        4.0442110000    -1.8274530000    -2.1054470000 
 H        4.8428070000    -2.0457110000    -0.5540010000 
 H        5.6858600000     0.1905760000    -1.0599120000 
 H        2.8163730000     0.7771800000    -2.0986110000 
 H        4.1436590000     2.0226090000    -1.9156400000 
*
