! RI PBE def2-SVP def2-SVP/J NBO PAL2
% maxcore 2000
% output
    # printlevel mini
    print[ P_Basis ] 0
    print[ P_SCFInfo ] 1
    print[ P_SCFIterInfo ] 1
    print[ P_OrbEn ] 0
    print[ P_Cartesian ] 0
end
*xyz 0 1
 O        1.1228840000    -0.2003420000    -0.0952920000 
 C        2.3107020000    -0.0093110000    -0.0815040000 
 C        3.0106170000     1.2835000000     0.1509420000 
 C        4.3212490000     1.1244040000    -0.0482820000 
 C        4.6626640000    -0.2980350000    -0.3447700000 
 N        4.3692000000    -1.2499060000     0.7246980000 
 C        3.3862370000    -1.0398300000    -0.3411010000 
 H        2.4942610000     2.1852530000     0.4506300000 
 H        5.0743720000     1.8987420000     0.0378620000 
 H        5.4973550000    -0.5497260000    -0.9872380000 
 H        4.0969130000    -0.7498380000     1.5671840000 
 H        3.1621460000    -1.8952010000    -0.9655290000 
*
