! RI PBE def2-SVP def2-SVP/J NBO PAL2
% maxcore 2000
% output
    # printlevel mini
    print[ P_Basis ] 0
    print[ P_SCFInfo ] 1
    print[ P_SCFIterInfo ] 1
    print[ P_OrbEn ] 0
    print[ P_Cartesian ] 0
end
*xyz 0 1
 O        1.1020470000    -0.3229570000     0.0233290000 
 C        2.4795890000     0.0122390000    -0.0131520000 
 C        2.8097160000     1.2955440000     0.7163180000 
 C        3.7152660000     1.1016720000     1.6701170000 
 C        4.0780390000    -0.3385440000     1.7730130000 
 N        2.9862090000    -1.2424350000     2.1417090000 
 C        3.2834330000    -1.0365280000     0.7354210000 
 H        0.6088140000     0.3574230000    -0.4418520000 
 H        2.8247640000     0.0587530000    -1.0565020000 
 H        2.3111550000     2.2337370000     0.4976930000 
 H        4.1101700000     1.8630140000     2.3327060000 
 H        5.0705580000    -0.6496920000     2.0765000000 
 H        2.1609180000    -0.7102020000     2.4041600000 
 H        3.6397230000    -1.9069150000     0.1979290000 
*
