! RI PBE def2-SVP def2-SVP/J NBO PAL2
% maxcore 2000
% output
    # printlevel mini
    print[ P_Basis ] 0
    print[ P_SCFInfo ] 1
    print[ P_SCFIterInfo ] 1
    print[ P_OrbEn ] 0
    print[ P_Cartesian ] 0
end
*xyz 0 1
 O        0.8465290000    -0.0406250000     0.4312940000 
 C        2.0262730000     0.0001770000     0.1611020000 
 C        2.7615270000     1.2640870000    -0.2208070000 
 C        4.2286000000     1.2772670000     0.1963970000 
 C        4.8842550000    -0.0251170000    -0.1401290000 
 C        4.1601990000    -1.1405360000    -0.1525310000 
 N        2.7938090000    -1.1339490000     0.1162600000 
 H        2.2017730000     2.1055050000     0.1864660000 
 H        2.6919570000     1.3273140000    -1.3140510000 
 H        4.3098270000     1.4614140000     1.2765050000 
 H        4.7407610000     2.1109370000    -0.2898600000 
 H        5.9455970000    -0.0737450000    -0.3443430000 
 H        4.5829020000    -2.1155820000    -0.3605010000 
 H        2.3036910000    -1.9999570000     0.2711080000 
*
