! RI PBE def2-SVP def2-SVP/J NBO PAL2
% maxcore 2000
% output
    # printlevel mini
    print[ P_Basis ] 0
    print[ P_SCFInfo ] 1
    print[ P_SCFIterInfo ] 1
    print[ P_OrbEn ] 0
    print[ P_Cartesian ] 0
end
*xyz 0 1
 O        0.9275350000    -0.1105360000     0.0307060000 
 C        2.2756850000    -0.0332270000    -0.0605920000 
 C        2.9749920000     1.1608630000    -0.1445010000 
 C        4.3564300000     1.1108690000    -0.2339340000 
 C        4.9834760000    -0.1244670000    -0.2360920000 
 N        4.3162420000    -1.2716530000    -0.1557800000 
 C        2.9971380000    -1.2259860000    -0.0703290000 
 H        0.5521120000     0.7745820000     0.0271710000 
 H        2.4492810000     2.1116710000    -0.1399890000 
 H        4.9385100000     2.0223300000    -0.3011690000 
 H        6.0645780000    -0.1963900000    -0.3050380000 
 H        2.4613220000    -2.1690470000    -0.0051420000 
*
