! RI PBE def2-SVP def2-SVP/J NBO PAL2
% maxcore 2000
% output
    # printlevel mini
    print[ P_Basis ] 0
    print[ P_SCFInfo ] 1
    print[ P_SCFIterInfo ] 1
    print[ P_OrbEn ] 0
    print[ P_Cartesian ] 0
end
*xyz 0 1
 O        1.0262390000    -0.1871600000    -0.1172770000 
 C        2.3551510000    -0.0632650000     0.0420750000 
 C        2.9909180000     1.1778360000     0.1202870000 
 C        4.3524510000     1.1590620000     0.2833010000 
 C        4.9721110000    -0.0842530000     0.3554210000 
 N        4.3053820000    -1.2237970000     0.2736690000 
 N        2.9993520000    -1.2150240000     0.1172870000 
 H        0.6236220000     0.6847990000    -0.1640140000 
 H        2.4323800000     2.1060620000     0.0549560000 
 H        4.9271080000     2.0749730000     0.3536510000 
 H        6.0442760000    -0.1804230000     0.4836520000 
*
