! RI PBE def2-SVP def2-SVP/J NBO PAL2
% maxcore 2000
% output
    # printlevel mini
    print[ P_Basis ] 0
    print[ P_SCFInfo ] 1
    print[ P_SCFIterInfo ] 1
    print[ P_OrbEn ] 0
    print[ P_Cartesian ] 0
end
*xyz 0 1
 O        1.5785810000     0.2627080000     1.1244200000 
 C        2.4540460000     0.1475400000     0.2895900000 
 C        3.0223140000    -1.2043420000    -0.0886020000 
 C        4.0850070000    -1.1967500000    -1.1813510000 
 C        4.9043960000     0.0784500000    -1.0900620000 
 N        4.0639610000     1.2562260000    -1.2194760000 
 N        3.0142680000     1.2402720000    -0.2911970000 
 H        2.1783380000    -1.8521100000    -0.3337130000 
 H        3.4344450000    -1.5955830000     0.8469980000 
 H        3.6156890000    -1.2372450000    -2.1708320000 
 H        4.7209250000    -2.0829810000    -1.1007070000 
 H        5.6579960000     0.1305270000    -1.8793790000 
 H        5.4257920000     0.1390450000    -0.1289840000 
 H        3.6565860000     1.2606090000    -2.1512500000 
 H        2.7660660000     2.1342240000     0.1036550000 
*
