! RI PBE def2-SVP def2-SVP/J NBO PAL2
% maxcore 2000
% output
    # printlevel mini
    print[ P_Basis ] 0
    print[ P_SCFInfo ] 1
    print[ P_SCFIterInfo ] 1
    print[ P_OrbEn ] 0
    print[ P_Cartesian ] 0
end
*xyz 0 1
 O        0.9148880000    -0.0214970000     0.3994040000 
 C        2.0977830000     0.0665690000     0.1613510000 
 C        2.8020920000     1.3482220000    -0.2017950000 
 C        4.2757450000     1.3093280000     0.1718210000 
 C        4.8672940000    -0.0012800000    -0.2288770000 
 N        4.2189350000    -1.0954710000    -0.2260210000 
 N        2.9093170000    -1.0387660000     0.1557080000 
 H        2.2684940000     2.1731530000     0.2689470000 
 H        2.6868030000     1.4653690000    -1.2857150000 
 H        4.3930330000     1.4187180000     1.2588350000 
 H        4.8232460000     2.1376010000    -0.2819640000 
 H        5.9108110000    -0.0760880000    -0.5188500000 
 H        2.4549370000    -1.9356770000     0.2223770000 
*
