! RI PBE def2-SVP def2-SVP/J NBO PAL2
% maxcore 2000
% output
    # printlevel mini
    print[ P_Basis ] 0
    print[ P_SCFInfo ] 1
    print[ P_SCFIterInfo ] 1
    print[ P_OrbEn ] 0
    print[ P_Cartesian ] 0
end
*xyz 0 1
 O        1.0889220000    -0.0429850000    -0.2387210000 
 C        2.2662590000     0.0796690000    -0.0696930000 
 O        3.0276200000    -1.0726740000     0.0359080000 
 N        4.3761390000    -1.0904080000     0.2289700000 
 C        4.9757370000     0.0395900000     0.3182160000 
 C        4.3221090000     1.3099360000     0.2284060000 
 C        2.9959850000     1.3295680000     0.0385430000 
 H        6.0460830000    -0.0398530000     0.4712670000 
 H        4.9042900000     2.2201990000     0.3145100000 
 H        2.4140560000     2.2384700000    -0.0420850000 
*
