! RI PBE def2-SVP def2-SVP/J NBO PAL2
% maxcore 2000
% output
    # printlevel mini
    print[ P_Basis ] 0
    print[ P_SCFInfo ] 1
    print[ P_SCFIterInfo ] 1
    print[ P_OrbEn ] 0
    print[ P_Cartesian ] 0
end
*xyz 0 1
 O        1.3581950000     0.1845640000     1.0018810000 
 C        2.3627570000     0.0428920000     0.3385160000 
 C        2.9522570000    -1.3082360000     0.0045150000 
 C        3.9922670000    -1.2920770000    -1.1099750000 
 C        4.8277350000    -0.0355550000    -1.0151790000 
 O        3.9861930000     1.0981710000    -1.1128080000 
 N        3.1169580000     1.1260280000    -0.0175730000 
 H        2.1199560000    -1.9792010000    -0.2108990000 
 H        3.3971930000    -1.6615940000     0.9412240000 
 H        3.5008120000    -1.3033700000    -2.0868500000 
 H        4.6282180000    -2.1796750000    -1.0558820000 
 H        5.5205510000     0.0604770000    -1.8523320000 
 H        5.3925930000     0.0057750000    -0.0744570000 
 H        2.6734940000     2.0304890000     0.0462300000 
*
