! RI PBE def2-SVP def2-SVP/J NBO PAL2
% maxcore 2000
% output
    # printlevel mini
    print[ P_Basis ] 0
    print[ P_SCFInfo ] 1
    print[ P_SCFIterInfo ] 1
    print[ P_OrbEn ] 0
    print[ P_Cartesian ] 0
end
*xyz 0 1
 O        0.9295480000    -0.1851610000     0.0515920000 
 C        2.2691400000     0.0078750000     0.0587710000 
 C        3.0681190000     1.1104520000     0.0627720000 
 C        4.4261690000     0.6369540000     0.0701860000 
 C        4.3664530000    -0.7233750000     0.0702220000 
 O        5.2956450000    -1.7074460000     0.0754310000 
 N        3.0557720000    -1.1092880000     0.0633060000 
 H        0.5010000000     0.6738340000     0.0494920000 
 H        2.7429120000     2.1389170000     0.0607330000 
 H        5.3203040000     1.2402830000     0.0748060000 
 H        6.1653520000    -1.3011010000     0.0803970000 
 H        2.7251960000    -2.0574440000     0.0618020000 
*
