! RI PBE def2-SVP def2-SVP/J NBO PAL2
% maxcore 2000
% output
    # printlevel mini
    print[ P_Basis ] 0
    print[ P_SCFInfo ] 1
    print[ P_SCFIterInfo ] 1
    print[ P_OrbEn ] 0
    print[ P_Cartesian ] 0
end
*xyz 0 1
 O        1.3760310000    -0.1682870000     1.0283120000 
 C        2.4045340000    -0.0929920000     0.4219910000 
 C        3.3393940000     1.0371630000    -0.0267130000 
 C        4.2092340000    -0.0884150000    -0.6552460000 
 N        3.2181350000    -1.0324840000    -0.1461300000 
 C        4.3738370000    -0.0611250000    -2.0975810000 
 C        4.5224790000    -0.0412740000    -3.2882690000 
 H        3.8095560000     1.5907300000     0.7848190000 
 H        2.8937700000     1.7202380000    -0.7476310000 
 H        5.1865040000    -0.1977680000    -0.1746980000 
 H        3.1195540000    -2.0280770000    -0.2705460000 
 H        4.6489820000    -0.0220090000    -4.3452180000 
*
