! RI PBE def2-SVP def2-SVP/J NBO PAL2
% maxcore 2000
% output
    # printlevel mini
    print[ P_Basis ] 0
    print[ P_SCFInfo ] 1
    print[ P_SCFIterInfo ] 1
    print[ P_OrbEn ] 0
    print[ P_Cartesian ] 0
end
*xyz 0 1
 O        1.2626630000    -0.0230670000     0.9202950000 
 C        2.3137190000     0.0552820000     0.3612840000 
 C        3.2766290000     1.1857430000    -0.0271760000 
 C        4.1735180000     0.0568770000    -0.6061480000 
 N        3.1500960000    -0.8837680000    -0.1854850000 
 C        4.4188570000     0.1086570000    -2.0432260000 
 N        4.6249860000     0.1462320000    -3.1733850000 
 H        3.7071650000     1.7287320000     0.8124260000 
 H        2.8767480000     1.8779740000    -0.7660410000 
 H        5.1302020000    -0.0624590000    -0.0896380000 
 H        3.0783270000    -1.8840940000    -0.2909050000 
*
