! RI PBE def2-SVP def2-SVP/J NBO PAL2
% maxcore 2000
% output
    # printlevel mini
    print[ P_Basis ] 0
    print[ P_SCFInfo ] 1
    print[ P_SCFIterInfo ] 1
    print[ P_OrbEn ] 0
    print[ P_Cartesian ] 0
end
*xyz 0 1
 O        0.9407000000    -0.0637920000    -0.3013840000 
 C        2.1023590000     0.1030480000    -0.0221620000 
 C        2.9123750000     1.3289160000    -0.1184010000 
 C        4.1370880000     1.0585550000     0.3486840000 
 N        4.2909870000    -0.2430490000     0.8812530000 
 C        4.2876060000    -1.2523820000    -0.1789180000 
 C        3.0411470000    -0.9190790000     0.5647340000 
 H        2.5647800000     2.2581680000    -0.5450450000 
 H        5.0096760000     1.7002930000     0.3412750000 
 H        4.7933810000    -2.1831040000     0.0530280000 
 H        4.3834240000    -0.8955080000    -1.1994800000 
 H        2.6546680000    -1.6263560000     1.2883170000 
*
