! RI PBE def2-SVP def2-SVP/J NBO PAL2
% maxcore 2000
% output
    # printlevel mini
    print[ P_Basis ] 0
    print[ P_SCFInfo ] 1
    print[ P_SCFIterInfo ] 1
    print[ P_OrbEn ] 0
    print[ P_Cartesian ] 0
end
*xyz 0 1
 O        1.0386920000    -0.3071050000    -0.1158870000 
 C        2.4386500000    -0.2771930000    -0.0516770000 
 C        3.1251490000    -1.4321170000    -0.7146710000 
 C        4.0439980000    -0.9501190000    -1.5478470000 
 N        4.0527260000     0.4524350000    -1.5640720000 
 C        3.0055530000     0.9240680000    -0.8029790000 
 N        2.4868280000     2.0744690000    -0.7003670000 
 H        0.7584200000     0.6184560000    -0.1014520000 
 H        2.7716290000    -0.2054010000     0.9982190000 
 H        2.9553480000    -2.4702130000    -0.4779470000 
 H        4.7667270000    -1.4871310000    -2.1461030000 
 H        4.4503740000     0.9837220000    -2.3197730000 
 H        2.9288250000     2.7715280000    -1.2946460000 
*
