! RI PBE def2-SVP def2-SVP/J NBO PAL2
% maxcore 2000
% output
    # printlevel mini
    print[ P_Basis ] 0
    print[ P_SCFInfo ] 1
    print[ P_SCFIterInfo ] 1
    print[ P_OrbEn ] 0
    print[ P_Cartesian ] 0
end
*xyz 0 1
 O        1.2155520000    -0.0697880000     0.8352200000 
 C        2.2908520000     0.0221540000     0.3240810000 
 C        3.0587390000     1.2861340000     0.0168290000 
 C        4.3638040000     0.8282280000    -0.6400330000 
 N        4.2700640000    -0.6169210000    -0.6560180000 
 C        3.1469550000    -1.1701920000    -0.1403520000 
 O        2.8672640000    -2.3388160000    -0.0584180000 
 H        3.2233560000     1.8393740000     0.9434870000 
 H        2.4573460000     1.9234930000    -0.6340450000 
 H        5.2398530000     1.1519370000    -0.0713220000 
 H        4.4653890000     1.2199190000    -1.6559810000 
 H        4.9975260000    -1.2012230000    -1.0341470000 
*
