! RI PBE def2-SVP def2-SVP/J NBO PAL2
% maxcore 2000
% output
    # printlevel mini
    print[ P_Basis ] 0
    print[ P_SCFInfo ] 1
    print[ P_SCFIterInfo ] 1
    print[ P_OrbEn ] 0
    print[ P_Cartesian ] 0
end
*xyz 0 1
 O        0.9690710000     0.2340910000    -0.0217100000 
 C        2.3617330000     0.1680860000     0.0079390000 
 C        3.0209330000     1.2085740000     0.8967930000 
 C        4.3260540000     0.5254640000     1.3235510000 
 N        3.9702690000    -0.8792600000     1.2983600000 
 C        2.8449220000    -1.1476780000     0.6046390000 
 O        2.2829990000    -2.2127880000     0.4665310000 
 H        0.6621260000    -0.6809260000    -0.0892980000 
 H        2.7784040000     0.2235920000    -1.0125970000 
 H        2.3774140000     1.3681620000     1.7654150000 
 H        3.1887810000     2.1669010000     0.4067070000 
 H        4.6483660000     0.8323230000     2.3204290000 
 H        5.1416510000     0.7423560000     0.6235780000 
 H        4.5197760000    -1.6094080000     1.7189830000 
*
