! RI PBE def2-SVP def2-SVP/J NBO PAL2
% maxcore 2000
% output
    # printlevel mini
    print[ P_Basis ] 0
    print[ P_SCFInfo ] 1
    print[ P_SCFIterInfo ] 1
    print[ P_OrbEn ] 0
    print[ P_Cartesian ] 0
end
*xyz 0 1
 O        1.0268880000     0.1033800000     0.2563820000 
 C        2.2158370000     0.0789480000     0.0537970000 
 C        2.9957070000    -1.2089470000    -0.0578450000 
 C        3.9541730000    -1.1758810000    -1.2452140000 
 N        4.7810740000     0.0108580000    -1.1687400000 
 C        3.9954370000     1.2214410000    -1.2921400000 
 C        3.0394810000     1.3338930000    -0.1076130000 
 H        2.2946090000    -2.0420290000    -0.1215110000 
 H        3.5842670000    -1.3165350000     0.8608190000 
 H        3.3637930000    -1.2181560000    -2.1781610000 
 H        4.5953330000    -2.0604430000    -1.2277700000 
 H        5.5054540000    -0.0154060000    -1.8736220000 
 H        3.4062280000     1.2474670000    -2.2264210000 
 H        4.6666610000     2.0834260000    -1.3088900000 
 H        2.3674240000     2.1874780000    -0.2042870000 
 H        3.6320250000     1.4570150000     0.8065280000 
*
