! RI PBE def2-SVP def2-SVP/J NBO PAL2
% maxcore 2000
% output
    # printlevel mini
    print[ P_Basis ] 0
    print[ P_SCFInfo ] 1
    print[ P_SCFIterInfo ] 1
    print[ P_OrbEn ] 0
    print[ P_Cartesian ] 0
end
*xyz 0 1
 O        0.8565450000    -0.1192380000    -0.4556680000 
 C        2.0474830000    -0.1064250000    -0.2128020000 
 C        2.7619560000     1.1878040000     0.1510150000 
 C        4.2223820000     1.1706440000    -0.2566020000 
 N        4.8606280000    -0.0242960000     0.2561370000 
 C        4.1997240000    -1.1979570000     0.1230720000 
 C        2.8775890000    -1.2928360000    -0.1561530000 
 H        2.6770830000     1.3038950000     1.2383320000 
 H        2.2359350000     2.0231110000    -0.3119930000 
 H        4.7469610000     2.0484390000     0.1254860000 
 H        4.2929490000     1.1857390000    -1.3549280000 
 H        5.8647470000    -0.0575140000     0.2392620000 
 H        4.8037350000    -2.0882030000     0.2695340000 
 H        2.4066020000    -2.2606630000    -0.2600900000 
*
