! RI PBE def2-SVP def2-SVP/J NBO PAL2
% maxcore 2000
% output
    # printlevel mini
    print[ P_Basis ] 0
    print[ P_SCFInfo ] 1
    print[ P_SCFIterInfo ] 1
    print[ P_OrbEn ] 0
    print[ P_Cartesian ] 0
end
*xyz 0 1
 O        0.9968410000    -0.0378850000     0.1772290000 
 C        2.3270020000     0.0762050000     0.0785220000 
 C        2.9777090000     1.3091840000     0.0111050000 
 C        4.3517820000     1.2649080000    -0.0881620000 
 N        5.0401760000     0.1251530000    -0.1196650000 
 C        4.3079470000    -0.9765930000    -0.0484150000 
 N        2.9880160000    -1.0650860000     0.0490540000 
 H        0.5977830000     0.8376340000     0.1919000000 
 H        2.4409310000     2.2507460000     0.0348500000 
 H        4.9286110000     2.1841920000    -0.1451020000 
 H        4.8468940000    -1.9201580000    -0.0722360000 
*
