! RI PBE def2-SVP def2-SVP/J NBO PAL2
% maxcore 2000
% output
    # printlevel mini
    print[ P_Basis ] 0
    print[ P_SCFInfo ] 1
    print[ P_SCFIterInfo ] 1
    print[ P_OrbEn ] 0
    print[ P_Cartesian ] 0
end
*xyz 0 1
 O        0.9285630000     0.1680280000     0.1994850000 
 C        2.1051950000     0.0142460000     0.0876340000 
 O        2.9147680000     1.1667270000     0.0305990000 
 C        4.2346240000     1.0708680000    -0.0934700000 
 N        4.9211640000    -0.0011280000    -0.1740580000 
 C        4.1988580000    -1.1690510000    -0.1252870000 
 C        2.8575020000    -1.2105760000    -0.0013420000 
 H        4.7086250000     2.0474350000    -0.1221440000 
 H        4.7832990000    -2.0805510000    -0.1938330000 
 H        2.3028030000    -2.1378970000     0.0357060000 
*
