! RI PBE def2-SVP def2-SVP/J NBO PAL2
% maxcore 2000
% output
    # printlevel mini
    print[ P_Basis ] 0
    print[ P_SCFInfo ] 1
    print[ P_SCFIterInfo ] 1
    print[ P_OrbEn ] 0
    print[ P_Cartesian ] 0
end
*xyz 0 1
 O        0.8388230000    -0.2185980000    -0.0406740000 
 C        2.1699770000    -0.0094700000     0.0171070000 
 C        2.9095440000     1.1420550000     0.0018020000 
 O        2.3438640000     2.3865430000    -0.1337370000 
 C        4.2776880000     0.7659850000     0.0690440000 
 C        4.3152870000    -0.6012660000     0.1295720000 
 N        3.0220640000    -1.0623210000     0.0891320000 
 H        0.4227690000     0.6453510000    -0.1311410000 
 H        2.6256360000     2.9391600000     0.5999300000 
 H        5.1302640000     1.4271730000     0.0650360000 
 H        5.1472580000    -1.2814530000     0.1954580000 
 H        2.7320170000    -2.0226690000     0.1025510000 
*
