! RI PBE def2-SVP def2-SVP/J NBO PAL2
% maxcore 2000
% output
    # printlevel mini
    print[ P_Basis ] 0
    print[ P_SCFInfo ] 1
    print[ P_SCFIterInfo ] 1
    print[ P_OrbEn ] 0
    print[ P_Cartesian ] 0
end
*xyz 0 1
 O        1.0310730000    -0.0544470000     0.2161540000 
 C        2.2469330000    -0.0023350000     0.1108820000 
 C        3.0269620000     1.2120390000     0.0084830000 
 C        4.3714260000     1.1267830000    -0.1037860000 
 N        4.9928390000    -0.0727910000    -0.1214380000 
 N        4.3664640000    -1.2415260000    -0.0334540000 
 C        3.0797140000    -1.2118310000     0.0755200000 
 H        2.5278820000     2.1717350000     0.0227840000 
 H        5.0236890000     1.9887270000    -0.1848970000 
 H        5.9923610000    -0.1406710000    -0.2047720000 
 H        2.5847570000    -2.1750630000     0.1462250000 
*
