! RI PBE def2-SVP def2-SVP/J NBO PAL2
% maxcore 2000
% output
    # printlevel mini
    print[ P_Basis ] 0
    print[ P_SCFInfo ] 1
    print[ P_SCFIterInfo ] 1
    print[ P_OrbEn ] 0
    print[ P_Cartesian ] 0
end
*xyz 0 1
 O        1.0137870000     0.2880820000    -0.3453080000 
 N        2.3675860000     0.2022950000    -0.1930980000 
 C        3.1996600000     1.2642100000    -0.2015570000 
 C        4.4825780000     0.7698360000    -0.0902760000 
 C        4.3801550000    -0.6382070000    -0.0238050000 
 O        5.3848250000    -1.5455720000     0.0891950000 
 C        3.0500100000    -0.9792880000    -0.0948130000 
 H        0.6493600000     0.2889500000     0.5492310000 
 H        2.8210690000     2.2684720000    -0.2917440000 
 H        5.3858810000     1.3606740000    -0.0657700000 
 H        6.2221050000    -1.0766800000     0.0888940000 
 H        2.5474730000    -1.9305730000    -0.1005390000 
*
