! RI PBE def2-SVP def2-SVP/J NBO PAL2
% maxcore 2000
% output
    # printlevel mini
    print[ P_Basis ] 0
    print[ P_SCFInfo ] 1
    print[ P_SCFIterInfo ] 1
    print[ P_OrbEn ] 0
    print[ P_Cartesian ] 0
end
*xyz 0 1
 O        1.0308100000    -0.1546550000     0.2012990000 
 C        2.2292920000    -0.0952700000     0.0912350000 
 C        2.9765380000     1.1578500000     0.0033470000 
 C        4.3037970000     1.1300330000    -0.1171320000 
 O        4.9988390000    -0.0294940000    -0.1621260000 
 C        4.2716540000    -1.1635140000    -0.0779340000 
 N        3.0180940000    -1.2673980000     0.0379050000 
 H        2.4416510000     2.0970380000     0.0372220000 
 H        4.9538830000     1.9919040000    -0.1899870000 
 H        4.9218420000    -2.0326970000    -0.1234380000 
*
