! RI PBE def2-SVP def2-SVP/J NBO PAL2
% maxcore 2000
% output
    # printlevel mini
    print[ P_Basis ] 0
    print[ P_SCFInfo ] 1
    print[ P_SCFIterInfo ] 1
    print[ P_OrbEn ] 0
    print[ P_Cartesian ] 0
end
*xyz 0 1
 O        1.0575830000    -0.1133140000    -0.4811300000 
 C        2.2089680000     0.0150280000    -0.1443250000 
 C        2.8590430000     1.3176990000     0.2249920000 
 C        4.3289620000     1.1908950000    -0.0910470000 
 O        4.9265310000     0.0827520000     0.5820810000 
 N        4.3170580000    -1.1140920000     0.4374750000 
 C        3.1049610000    -1.1490940000     0.0236330000 
 H        2.7042410000     1.4834370000     1.2975030000 
 H        2.3921320000     2.1423760000    -0.3155480000 
 H        4.9098330000     2.0569300000     0.2241590000 
 H        4.4743320000     1.0385790000    -1.1692760000 
 H        2.6817580000    -2.1415950000    -0.0921260000 
*
