! RI PBE def2-SVP def2-SVP/J NBO PAL2
% maxcore 2000
% output
    # printlevel mini
    print[ P_Basis ] 0
    print[ P_SCFInfo ] 1
    print[ P_SCFIterInfo ] 1
    print[ P_OrbEn ] 0
    print[ P_Cartesian ] 0
end
*xyz 0 1
 O        0.9401220000     0.0187330000     0.1133390000 
 C        2.3513210000    -0.0235400000     0.0740890000 
 C        2.9949560000    -1.0981590000     1.0003490000 
 N        3.7410860000    -0.2864920000     1.9854310000 
 C        4.3610410000     0.7131260000     1.0459220000 
 C        2.9278980000     1.1949800000     0.7770800000 
 C        2.7271420000     0.7932830000     2.2483840000 
 H        0.5977430000    -0.7756620000    -0.3029880000 
 H        2.7001620000    -0.0960970000    -0.9639860000 
 H        3.6805250000    -1.7693210000     0.4789050000 
 H        2.2284620000    -1.6917090000     1.5036080000 
 H        4.9440780000     0.2804050000     0.2277550000 
 H        4.9651850000     1.4304260000     1.6029580000 
 H        2.6750900000     2.1723710000     0.3663990000 
 H        1.7440890000     0.4446860000     2.5674480000 
 H        3.1329300000     1.5175690000     2.9558070000 
*
