! RI PBE def2-SVP def2-SVP/J NBO PAL2
% maxcore 2000
% output
    # printlevel mini
    print[ P_Basis ] 0
    print[ P_SCFInfo ] 1
    print[ P_SCFIterInfo ] 1
    print[ P_OrbEn ] 0
    print[ P_Cartesian ] 0
end
*xyz 0 1
 O        1.0546640000     0.0737000000    -0.0083560000 
 C        2.2508150000     0.1239150000    -0.0361330000 
 C        3.2771920000    -1.0164030000    -0.0104370000 
 N        4.5451170000    -0.2588360000    -0.0694180000 
 C        4.1968800000     0.7566500000    -1.1221840000 
 C        3.1742650000     1.3178780000    -0.1058770000 
 C        4.2405690000     0.8416080000     0.9088750000 
 H        3.1709820000    -1.6836210000    -0.8683670000 
 H        3.2090960000    -1.6093800000     0.9040300000 
 H        3.8376450000     0.3454300000    -2.0683210000 
 H        5.0405250000     1.4267740000    -1.2929920000 
 H        2.7224470000     2.3062920000    -0.1374970000 
 H        3.9230310000     0.5114470000     1.9005850000 
 H        5.0895730000     1.5221260000     0.9867720000 
*
