! RI PBE def2-SVP def2-SVP/J NBO PAL2
% maxcore 2000
% output
    # printlevel mini
    print[ P_Basis ] 0
    print[ P_SCFInfo ] 1
    print[ P_SCFIterInfo ] 1
    print[ P_OrbEn ] 0
    print[ P_Cartesian ] 0
end
*xyz 0 1
 O        1.1222670000    -0.0366680000     0.4684990000 
 C        2.2870230000    -0.0401310000     0.2548030000 
 C        3.3617310000     1.0087400000     0.0154940000 
 N        4.2620190000    -0.0748090000    -0.4174340000 
 C        3.3644440000    -1.1418890000     0.0787460000 
 C        3.0984690000    -2.2517530000    -0.8067260000 
 C        2.8480210000    -3.1728370000    -1.5337200000 
 H        3.6328220000     1.5189190000     0.9491240000 
 H        3.1412130000     1.7580220000    -0.7491550000 
 H        5.1773230000    -0.0724310000     0.0106290000 
 H        3.6288140000    -1.5189740000     1.0789670000 
 H        2.6284640000    -3.9856990000    -2.1849160000 
*
