! RI PBE def2-SVP def2-SVP/J NBO PAL2
% maxcore 2000
% output
    # printlevel mini
    print[ P_Basis ] 0
    print[ P_SCFInfo ] 1
    print[ P_SCFIterInfo ] 1
    print[ P_OrbEn ] 0
    print[ P_Cartesian ] 0
end
*xyz 0 1
 O        1.0253450000     0.5961750000     0.0505260000 
 C        2.3797670000     0.2797520000     0.1359460000 
 C        3.2231100000     0.9612740000     1.2478110000 
 N        3.8981030000    -0.3229210000     1.4642060000 
 C        2.7803370000    -1.0428820000     0.8446380000 
 C        3.0128990000     0.4098580000    -1.2063860000 
 C        2.3835960000     0.7714560000    -2.3138910000 
 H        0.6373030000     0.5061670000     0.9243660000 
 H        2.5664850000     1.2752050000     2.0735970000 
 H        3.8718910000     1.7944290000     0.9668790000 
 H        4.1084010000    -0.5623490000     2.4235030000 
 H        1.9878430000    -1.3440610000     1.5466780000 
 H        3.0559580000    -1.8988170000     0.2238370000 
 H        4.0745330000     0.1776890000    -1.2177340000 
 H        1.3258100000     1.0039740000    -2.3086440000 
 H        2.9137980000     0.8437600000    -3.2561240000 
*
