! RI PBE def2-SVP def2-SVP/J NBO PAL2
% maxcore 2000
% output
    # printlevel mini
    print[ P_Basis ] 0
    print[ P_SCFInfo ] 1
    print[ P_SCFIterInfo ] 1
    print[ P_OrbEn ] 0
    print[ P_Cartesian ] 0
end
*xyz 0 1
 O        0.9170760000    -0.0110740000     0.2573680000 
 C        2.3114100000    -0.0108670000     0.1367620000 
 C        3.1155470000     1.0386640000     0.9521830000 
 N        4.0818310000    -0.0107870000     1.2901830000 
 C        3.1158550000    -1.0604090000     0.9518450000 
 C        2.6430250000    -0.0106060000    -1.2781300000 
 C        2.9442310000    -0.0104190000    -2.4388060000 
 H        0.7018810000    -0.0115960000     1.1946730000 
 H        2.5041880000     1.3923880000     1.7958410000 
 H        3.5223230000     1.8966010000     0.4139240000 
 H        4.4250520000    -0.0108980000     2.2406200000 
 H        2.5046220000    -1.4145890000     1.7954080000 
 H        3.5228770000    -1.9180460000     0.4132980000 
 H        3.2055820000    -0.0102510000    -3.4704780000 
*
