! RI PBE def2-SVP def2-SVP/J NBO PAL2
% maxcore 2000
% output
    # printlevel mini
    print[ P_Basis ] 0
    print[ P_SCFInfo ] 1
    print[ P_SCFIterInfo ] 1
    print[ P_OrbEn ] 0
    print[ P_Cartesian ] 0
end
*xyz 0 1
 O        0.9145040000     0.2360580000     0.1140610000 
 C        2.3015240000     0.1290620000     0.0923490000 
 C        3.0407930000     1.0796400000     1.0310250000 
 N        3.9784840000    -0.0150890000     1.3357770000 
 C        2.9781930000    -1.0103630000     0.9054100000 
 C        3.4660760000    -2.1874820000     0.2166220000 
 C        3.8396550000    -3.1627020000    -0.3770000000 
 H        0.5474860000    -0.3016320000    -0.5921990000 
 H        2.7071650000     0.1615680000    -0.9232490000 
 H        2.3828300000     1.3626120000     1.8626130000 
 H        3.4981280000     1.9736530000     0.6031000000 
 H        4.2718970000    -0.0940380000     2.3006530000 
 H        2.2854190000    -1.3090910000     1.7054210000 
 H        4.1832460000    -4.0247880000    -0.8980940000 
*
