! RI PBE def2-SVP def2-SVP/J NBO PAL2
% maxcore 2000
% output
    # printlevel mini
    print[ P_Basis ] 0
    print[ P_SCFInfo ] 1
    print[ P_SCFIterInfo ] 1
    print[ P_OrbEn ] 0
    print[ P_Cartesian ] 0
end
*xyz 0 1
 O        1.1427450000    -0.1087780000     0.4323110000 
 C        2.2965750000    -0.1010770000     0.1780660000 
 C        3.3677180000     0.9472230000    -0.0722740000 
 N        4.2616790000    -0.1333110000    -0.5281390000 
 C        3.3743820000    -1.2022200000    -0.0466940000 
 C        3.0839670000    -2.2698360000    -0.9859370000 
 N        2.8351670000    -3.1158110000    -1.7232840000 
 H        3.6569410000     1.4524640000     0.8580050000 
 H        3.1331420000     1.6990100000    -0.8299700000 
 H        5.1869410000    -0.1401350000    -0.1232060000 
 H        3.6468430000    -1.6431100000     0.9227320000 
*
