! RI PBE def2-SVP def2-SVP/J NBO PAL2
% maxcore 2000
% output
    # printlevel mini
    print[ P_Basis ] 0
    print[ P_SCFInfo ] 1
    print[ P_SCFIterInfo ] 1
    print[ P_OrbEn ] 0
    print[ P_Cartesian ] 0
end
*xyz 0 1
 O        0.9759580000     0.0167700000     0.5216400000 
 C        2.3096520000     0.0683120000     0.1039640000 
 C        3.2077100000     1.1377490000     0.7775850000 
 N        3.9387000000     0.0549960000     1.4184370000 
 C        3.1615080000    -1.0052710000     0.8008960000 
 C        5.2119730000     0.0149250000     1.8794820000 
 N        5.9278340000    -1.0046340000     2.1406340000 
 H        0.4716960000     0.6821030000     0.0465220000 
 H        2.3889690000     0.0557210000    -0.9871330000 
 H        2.6646470000     1.7873540000     1.4714850000 
 H        3.8053990000     1.7463630000     0.0904750000 
 H        2.5902180000    -1.6201920000     1.5025570000 
 H        3.7419420000    -1.6525840000     0.1335840000 
 H        5.6332630000     1.0099600000     2.0477040000 
 H        5.4230110000    -1.8717010000     1.9538780000 
*
