! RI PBE def2-SVP def2-SVP/J NBO PAL2
% maxcore 2000
% output
    # printlevel mini
    print[ P_Basis ] 0
    print[ P_SCFInfo ] 1
    print[ P_SCFIterInfo ] 1
    print[ P_OrbEn ] 0
    print[ P_Cartesian ] 0
end
*xyz 0 1
 O        0.9882910000     0.1724160000     0.0534340000 
 C        2.3620440000     0.0375170000     0.0420980000 
 C        3.2437780000     0.9822850000     0.9027160000 
 N        4.1092440000    -0.1628740000     1.1957820000 
 C        3.0387960000    -1.1019190000     0.8512200000 
 C        2.8595680000     0.0236160000    -1.3822200000 
 O        2.1664150000     0.1156380000    -2.3523950000 
 H        0.6876730000     0.1793870000     0.9661040000 
 H        2.6568850000     1.3499610000     1.7572120000 
 H        3.7330920000     1.8298560000     0.4146790000 
 H        4.4810050000    -0.2225970000     2.1337380000 
 H        2.3874790000    -1.3897080000     1.6895030000 
 H        3.3561200000    -2.0035080000     0.3197970000 
 H        3.9632310000    -0.0832590000    -1.4516690000 
*
