! RI PBE def2-SVP def2-SVP/J NBO PAL2
% maxcore 2000
% output
    # printlevel mini
    print[ P_Basis ] 0
    print[ P_SCFInfo ] 1
    print[ P_SCFIterInfo ] 1
    print[ P_OrbEn ] 0
    print[ P_Cartesian ] 0
end
*xyz 0 1
 O        1.0480540000     0.0530080000     0.3592570000 
 C        2.3918980000     0.0753500000    -0.0186850000 
 C        3.2962900000     1.1536620000     0.6382660000 
 N        4.1130730000     0.0671690000     1.1546090000 
 C        3.2261340000    -0.9933590000     0.7083190000 
 C        5.2328130000     0.0174640000     1.8900010000 
 O        5.7493310000    -1.0029040000     2.2900310000 
 H        0.5503970000     0.6532070000    -0.2013700000 
 H        2.5064360000     0.0384340000    -1.1062560000 
 H        2.7691470000     1.7191250000     1.4134810000 
 H        3.8135550000     1.8384410000    -0.0391570000 
 H        2.6758630000    -1.4725630000     1.5230140000 
 H        3.7049010000    -1.7561880000     0.0916760000 
 H        5.6498990000     1.0250640000     2.0874130000 
*
