! RI PBE def2-SVP def2-SVP/J NBO PAL2
% maxcore 2000
% output
    # printlevel mini
    print[ P_Basis ] 0
    print[ P_SCFInfo ] 1
    print[ P_SCFIterInfo ] 1
    print[ P_OrbEn ] 0
    print[ P_Cartesian ] 0
end
*xyz 0 1
 O        1.0802780000     0.0732000000     0.0323830000 
 C        2.4739240000     0.1082460000     0.0760570000 
 C        3.1757660000     1.0664630000     1.0586870000 
 N        4.0700220000    -0.0393340000     1.4276320000 
 C        3.1136300000    -1.0132730000     0.9167880000 
 C        3.6407550000    -2.2199980000     0.2042960000 
 O        4.7767930000    -2.6006020000     0.2325100000 
 H        0.7702420000     0.6526660000    -0.6674860000 
 H        2.9142720000     0.1586430000    -0.9257210000 
 H        2.4691660000     1.3687270000     1.8424060000 
 H        3.6782680000     1.9478010000     0.6518880000 
 H        4.3272970000    -0.1213480000     2.4008420000 
 H        2.3537710000    -1.3570290000     1.6404070000 
 H        2.8632270000    -2.7672610000    -0.3770890000 
*
