! RI PBE def2-SVP def2-SVP/J NBO PAL2
% maxcore 2000
% output
    # printlevel mini
    print[ P_Basis ] 0
    print[ P_SCFInfo ] 1
    print[ P_SCFIterInfo ] 1
    print[ P_OrbEn ] 0
    print[ P_Cartesian ] 0
end
*xyz 0 1
 O        1.6522960000     0.2789190000     1.0705430000 
 C        2.5803150000     0.0762270000     0.3349610000 
 C        2.9424670000    -1.2700370000    -0.2799450000 
 N        4.3378680000    -1.1503830000    -0.6746130000 
 C        4.6810560000     0.2481570000    -0.7697750000 
 C        3.8261500000     1.1428610000    -1.5969020000 
 C        3.6111650000     1.0523970000    -0.0949060000 
 H        2.2471890000    -1.4620810000    -1.1100060000 
 H        2.7889710000    -2.0592600000     0.4599750000 
 H        4.5406260000    -1.6431090000    -1.5337400000 
 H        5.7276530000     0.4892230000    -0.6251890000 
 H        3.0814300000     0.7025370000    -2.2502580000 
 H        4.2437450000     2.0783220000    -1.9480650000 
 H        3.7983800000     1.9193160000     0.5229310000 
*
