! RI PBE def2-SVP def2-SVP/J NBO PAL2
% maxcore 2000
% output
    # printlevel mini
    print[ P_Basis ] 0
    print[ P_SCFInfo ] 1
    print[ P_SCFIterInfo ] 1
    print[ P_OrbEn ] 0
    print[ P_Cartesian ] 0
end
*xyz 0 1
 O        0.9744870000    -0.1219210000    -0.0306130000 
 C        2.3778370000    -0.0636580000     0.0214090000 
 C        2.9637790000     1.0242620000     0.9207760000 
 N        4.3084690000     0.5224360000     1.1330510000 
 C        4.1815650000    -0.9062770000     1.4127360000 
 C        2.9618620000    -1.3139580000     0.6272560000 
 C        2.4321760000    -2.5223940000     0.5341860000 
 H        0.6653030000     0.5484780000    -0.6439060000 
 H        2.7980360000     0.0621140000    -0.9874640000 
 H        2.3459260000     1.0818820000     1.8325860000 
 H        2.9823780000     2.0099260000     0.4482190000 
 H        4.8068300000     1.0193490000     1.8571030000 
 H        4.0142450000    -1.1255550000     2.4793110000 
 H        5.0813480000    -1.4452780000     1.1024300000 
 H        2.8825610000    -3.3812130000     1.0200430000 
 H        1.5149090000    -2.6804920000    -0.0202340000 
*
