! RI PBE def2-SVP def2-SVP/J NBO PAL2
% maxcore 2000
% output
    # printlevel mini
    print[ P_Basis ] 0
    print[ P_SCFInfo ] 1
    print[ P_SCFIterInfo ] 1
    print[ P_OrbEn ] 0
    print[ P_Cartesian ] 0
end
*xyz 0 1
 O        0.9994320000    -0.0359060000     0.8585540000 
 C        2.1961230000     0.0193910000     0.1056130000 
 C        3.1404140000     1.1469030000     0.5758190000 
 N        4.2799830000     0.4492060000     1.1733560000 
 C        3.7758770000    -0.8374870000     1.6394400000 
 C        2.9868800000    -1.2582010000     0.4120800000 
 O        3.8501620000    -1.5883100000    -0.6505090000 
 H        0.5061130000     0.7748130000     0.7129250000 
 H        1.9823770000     0.0741350000    -0.9666820000 
 H        2.5931790000     1.7721460000     1.2954690000 
 H        3.4734340000     1.7881250000    -0.2449980000 
 H        4.7479530000     0.9883690000     1.8873150000 
 H        3.1065310000    -0.7684350000     2.5095450000 
 H        4.5928380000    -1.5258590000     1.8651390000 
 H        2.3153760000    -2.1005010000     0.5777340000 
 H        4.5816380000    -0.9596780000    -0.5969000000 
*
