! RI PBE def2-SVP def2-SVP/J NBO PAL2
% maxcore 2000
% output
    # printlevel mini
    print[ P_Basis ] 0
    print[ P_SCFInfo ] 1
    print[ P_SCFIterInfo ] 1
    print[ P_OrbEn ] 0
    print[ P_Cartesian ] 0
end
*xyz 0 1
 O        1.0234690000    -0.0683490000     0.0770790000 
 C        2.4178890000    -0.0158020000     0.0834500000 
 C        3.0480990000     1.0482160000     0.9769310000 
 N        4.3875400000     0.5137020000     1.1754410000 
 C        4.2358160000    -0.9012700000     1.4661430000 
 C        3.0195720000    -1.3014880000     0.6549580000 
 O        2.5847990000    -2.4070180000     0.5166170000 
 H        0.6902740000     0.4658330000    -0.6458170000 
 H        2.8364690000     0.0809690000    -0.9294120000 
 H        2.4462190000     1.1204220000     1.8979580000 
 H        3.0883770000     2.0346980000     0.5106680000 
 H        4.9086970000     1.0112490000     1.8822380000 
 H        4.0031260000    -1.1320160000     2.5195550000 
 H        5.1116510000    -1.4887440000     1.1815120000 
*
