! RI PBE def2-SVP def2-SVP/J NBO PAL2
% maxcore 2000
% output
    # printlevel mini
    print[ P_Basis ] 0
    print[ P_SCFInfo ] 1
    print[ P_SCFIterInfo ] 1
    print[ P_OrbEn ] 0
    print[ P_Cartesian ] 0
end
*xyz 0 1
 O        1.0007970000    -0.0732620000     0.1909170000 
 C        2.2088050000    -0.0493730000     0.1072020000 
 C        2.9801650000     1.2425810000    -0.0913870000 
 N        4.3313590000     1.2237060000     0.4361620000 
 C        5.0922810000     0.0859710000    -0.0353130000 
 C        4.3529510000    -1.2141200000     0.0021320000 
 C        3.0245070000    -1.2742230000     0.1234170000 
 H        2.4110840000     2.0619680000     0.3505930000 
 H        3.0214500000     1.4334110000    -1.1727760000 
 H        4.2923830000     1.1989500000     1.4481360000 
 H        6.0126240000     0.0075710000     0.5507930000 
 H        5.4205520000     0.2736870000    -1.0694800000 
 H        4.9370150000    -2.1279550000    -0.0843240000 
 H        2.4878470000    -2.2154210000     0.1768300000 
*
