! RI PBE def2-SVP def2-SVP/J NBO PAL2
% maxcore 2000
% output
    # printlevel mini
    print[ P_Basis ] 0
    print[ P_SCFInfo ] 1
    print[ P_SCFIterInfo ] 1
    print[ P_OrbEn ] 0
    print[ P_Cartesian ] 0
end
*xyz 0 1
 O        1.0570790000    -0.0229650000     0.5969260000 
 C        2.4065850000     0.1098540000     0.1822700000 
 C        2.6254670000     1.3393730000    -0.6958690000 
 N        3.9164810000     1.3425670000    -1.3539920000 
 C        4.1043800000     0.1820870000    -2.2083270000 
 C        3.5250810000    -1.0907460000    -1.6698960000 
 C        2.7634090000    -1.1243720000    -0.5834150000 
 H        0.8353910000     0.7314250000     1.1490890000 
 H        3.0562520000     0.1827210000     1.0716560000 
 H        2.5200840000     2.2582030000    -0.1092680000 
 H        1.8394070000     1.3486150000    -1.4588400000 
 H        4.6525040000     1.3734920000    -0.6593110000 
 H        5.1756860000     0.0595350000    -2.3967410000 
 H        3.6561550000     0.3852420000    -3.1919620000 
 H        3.7294890000    -2.0043740000    -2.2220570000 
 H        2.3459310000    -2.0561670000    -0.2146510000 
*
