! RI PBE def2-SVP def2-SVP/J NBO PAL2
% maxcore 2000
% output
    # printlevel mini
    print[ P_Basis ] 0
    print[ P_SCFInfo ] 1
    print[ P_SCFIterInfo ] 1
    print[ P_OrbEn ] 0
    print[ P_Cartesian ] 0
end
*xyz 0 1
 O        1.3809080000     0.0319540000     0.9981610000 
 C        2.3483170000    -0.0218060000     0.2643000000 
 C        3.0127680000    -1.3443060000    -0.0790880000 
 N        3.9452460000    -1.3398660000    -1.1894500000 
 C        4.8005120000    -0.1731230000    -1.1423360000 
 C        4.0176860000     1.1263870000    -1.2040000000 
 N        2.9216920000     1.0909140000    -0.2587610000 
 H        2.2163440000    -2.0685440000    -0.2547570000 
 H        3.5303150000    -1.6733020000     0.8304910000 
 H        3.4401960000    -1.3633760000    -2.0673160000 
 H        5.5194730000    -0.2083920000    -1.9642490000 
 H        5.3723750000    -0.2137850000    -0.2085540000 
 H        3.6407180000     1.2805420000    -2.2250910000 
 H        4.6694200000     1.9741200000    -0.9685740000 
 H        2.4355500000     1.9474710000    -0.0414750000 
*
