! RI PBE def2-SVP def2-SVP/J NBO PAL2
% maxcore 2000
% output
    # printlevel mini
    print[ P_Basis ] 0
    print[ P_SCFInfo ] 1
    print[ P_SCFIterInfo ] 1
    print[ P_OrbEn ] 0
    print[ P_Cartesian ] 0
end
*xyz 0 1
 O        1.3388670000     0.1236330000     0.7242840000 
 C        2.3171310000     0.0424990000     0.0386880000 
 C        3.0216170000    -1.2808980000    -0.2021840000 
 N        4.0309490000    -1.3254880000    -1.2390800000 
 C        4.8159710000    -0.1097240000    -1.2162950000 
 C        3.9503840000     1.1129890000    -1.3993610000 
 O        2.8500960000     1.1595490000    -0.4852490000 
 H        2.2480870000    -2.0275570000    -0.3840950000 
 H        3.4768600000    -1.5450420000     0.7608160000 
 H        3.5943730000    -1.4378090000    -2.1463340000 
 H        5.5761620000    -0.1382770000    -2.0012330000 
 H        5.3433080000    -0.0594890000    -0.2569610000 
 H        3.5400790000     1.1381890000    -2.4158060000 
 H        4.5079260000     2.0382260000    -1.2367990000 
*
