! RI PBE def2-SVP def2-SVP/J NBO PAL2
% maxcore 2000
% output
    # printlevel mini
    print[ P_Basis ] 0
    print[ P_SCFInfo ] 1
    print[ P_SCFIterInfo ] 1
    print[ P_OrbEn ] 0
    print[ P_Cartesian ] 0
end
*xyz 0 1
 O        1.1007410000     0.0049870000     0.7658940000 
 C        2.3558330000     0.0682780000     0.1238970000 
 C        2.4569070000     1.2898870000    -0.7800800000 
 N        3.6816490000     1.1883990000    -1.5351370000 
 C        4.1031280000    -0.0405160000    -1.9611610000 
 N        3.6394080000    -1.1730470000    -1.6255330000 
 C        2.5183290000    -1.1935100000    -0.7054900000 
 H        1.0639280000     0.6806570000     1.4474870000 
 H        3.1697340000     0.1146170000     0.8609190000 
 H        2.4700060000     2.2077180000    -0.1839520000 
 H        1.5680020000     1.3190400000    -1.4243350000 
 H        4.0174490000     1.9954510000    -2.0296450000 
 H        4.9514400000    -0.0040120000    -2.6456360000 
 H        2.6289600000    -2.0517540000    -0.0372420000 
 H        1.5890040000    -1.3613020000    -1.2641840000 
*
