! RI PBE def2-SVP def2-SVP/J NBO PAL2
% maxcore 2000
% output
    # printlevel mini
    print[ P_Basis ] 0
    print[ P_SCFInfo ] 1
    print[ P_SCFIterInfo ] 1
    print[ P_OrbEn ] 0
    print[ P_Cartesian ] 0
end
*xyz 0 1
 O        1.0759460000     0.0427700000     0.0307020000 
 C        2.4804320000     0.0495060000     0.0967100000 
 C        3.0630350000     1.1795990000     0.9566660000 
 N        4.3135310000     0.6025840000     1.3890480000 
 C        4.2865950000    -0.7732310000     1.4349890000 
 N        5.1441880000    -1.5849600000     1.9009620000 
 C        2.9894840000    -1.1997840000     0.7955880000 
 H        0.7872690000     0.7482800000    -0.5531800000 
 H        2.9154930000     0.1111900000    -0.9094620000 
 H        2.3730690000     1.3872640000     1.7863030000 
 H        3.2200220000     2.1042030000     0.3940180000 
 H        4.9593890000     1.1165990000     1.9639860000 
 H        5.9389170000    -1.0979400000     2.3130730000 
 H        2.2819440000    -1.4773690000     1.5838190000 
 H        3.1230750000    -2.0610120000     0.1439790000 
*
