! RI PBE def2-SVP def2-SVP/J NBO PAL2
% maxcore 2000
% output
    # printlevel mini
    print[ P_Basis ] 0
    print[ P_SCFInfo ] 1
    print[ P_SCFIterInfo ] 1
    print[ P_OrbEn ] 0
    print[ P_Cartesian ] 0
end
*xyz 0 1
 O        1.2100020000     0.0341380000     0.7513550000 
 C        2.3180120000     0.0355680000     0.2985280000 
 C        3.1349110000     1.2937820000     0.0213620000 
 N        4.3670880000     0.7739570000    -0.5058330000 
 C        4.4580100000    -0.5819610000    -0.6041720000 
 O        5.4106550000    -1.1934920000    -1.0212250000 
 C        3.1511030000    -1.1587870000    -0.0958760000 
 H        3.2636740000     1.8569350000     0.9522550000 
 H        2.5936460000     1.9309240000    -0.6867070000 
 H        5.1399080000     1.3498360000    -0.7958060000 
 H        3.3200820000    -1.8230460000     0.7549810000 
 H        2.6558070000    -1.7498640000    -0.8698630000 
*
