! RI PBE def2-SVP def2-SVP/J NBO PAL2
% maxcore 2000
% output
    # printlevel mini
    print[ P_Basis ] 0
    print[ P_SCFInfo ] 1
    print[ P_SCFIterInfo ] 1
    print[ P_OrbEn ] 0
    print[ P_Cartesian ] 0
end
*xyz 0 1
 O        0.8596680000    -0.0030640000    -0.0697830000 
 C        2.2167140000     0.0477270000    -0.0633320000 
 C        3.0533310000     1.1386660000    -0.0570780000 
 N        4.3378650000     0.6722030000    -0.0520810000 
 C        4.3398570000    -0.6944090000    -0.0550100000 
 C        3.0294850000    -1.1103290000    -0.0620250000 
 O        2.5203820000    -2.3692900000    -0.0671070000 
 H        0.5140260000     0.8923900000    -0.0694250000 
 H        2.8284960000     2.1929850000    -0.0558660000 
 H        5.1572160000     1.2472620000    -0.0470180000 
 H        5.2549430000    -1.2642770000    -0.0519560000 
 H        3.2449960000    -2.9987630000    -0.0651180000 
*
