! RI PBE def2-SVP def2-SVP/J NBO PAL2
% maxcore 2000
% output
    # printlevel mini
    print[ P_Basis ] 0
    print[ P_SCFInfo ] 1
    print[ P_SCFIterInfo ] 1
    print[ P_OrbEn ] 0
    print[ P_Cartesian ] 0
end
*xyz 0 1
 O        1.0691380000    -0.0392320000    -0.0030930000 
 C        2.4115410000     0.1067880000     0.0036840000 
 C        3.2279050000     1.2123320000     0.0085280000 
 C        4.5600300000     0.7060660000     0.0147600000 
 O        5.7095780000     1.4306000000     0.0209600000 
 C        4.5116910000    -0.6578110000     0.0135300000 
 N        3.1686230000    -1.0053300000     0.0066310000 
 H        0.6655320000     0.8316690000    -0.0042200000 
 H        2.9156090000     2.2459180000     0.0077010000 
 H        5.4851540000     2.3630450000     0.0206770000 
 H        5.2953340000    -1.3944420000     0.0168760000 
 H        2.8000840000    -1.9381030000     0.0041450000 
*
