! RI PBE def2-SVP def2-SVP/J NBO PAL2
% maxcore 2000
% output
    # printlevel mini
    print[ P_Basis ] 0
    print[ P_SCFInfo ] 1
    print[ P_SCFIterInfo ] 1
    print[ P_OrbEn ] 0
    print[ P_Cartesian ] 0
end
*xyz 0 1
 O        0.8818010000     0.0063240000    -0.5049900000 
 C        2.0391280000     0.0645240000    -0.1836190000 
 C        2.9457220000     1.2473350000    -0.2050790000 
 N        4.1166660000     0.9888280000     0.2280660000 
 N        4.1590830000    -0.3204330000     0.7640580000 
 C        4.2176280000    -1.2832690000    -0.3151490000 
 C        2.9190270000    -0.9957600000     0.3763070000 
 H        2.6951050000     2.2193110000    -0.6130030000 
 H        4.7079160000    -2.2238690000    -0.0915650000 
 H        4.3692230000    -0.8857300000    -1.3131560000 
 H        2.5030000000    -1.7326600000     1.0511310000 
*
