! RI PBE def2-SVP def2-SVP/J NBO PAL2
% maxcore 2000
% output
    # printlevel mini
    print[ P_Basis ] 0
    print[ P_SCFInfo ] 1
    print[ P_SCFIterInfo ] 1
    print[ P_OrbEn ] 0
    print[ P_Cartesian ] 0
end
*xyz 0 1
 O        0.8716330000     0.1141210000    -0.1127980000 
 C        2.0741760000     0.0769800000    -0.0933580000 
 C        2.8605410000     1.3692050000    -0.0767930000 
 N        4.2906190000     1.2006320000    -0.0534320000 
 N        4.9500030000     0.0453700000    -0.0467370000 
 C        4.3216040000    -1.0634060000    -0.0604880000 
 C        2.8348250000    -1.2207760000    -0.0847470000 
 H        2.5076450000     1.9297770000     0.7985230000 
 H        2.5368330000     1.9344540000    -0.9603640000 
 H        4.8825940000     2.0086120000    -0.0416420000 
 H        4.9407780000    -1.9540340000    -0.0534330000 
 H        2.4798220000    -1.7984490000     0.7775670000 
 H        2.5076290000    -1.7937050000    -0.9610990000 
*
