! RI PBE def2-SVP def2-SVP/J NBO PAL2
% maxcore 2000
% output
    # printlevel mini
    print[ P_Basis ] 0
    print[ P_SCFInfo ] 1
    print[ P_SCFIterInfo ] 1
    print[ P_OrbEn ] 0
    print[ P_Cartesian ] 0
end
*xyz 0 1
 O        1.5496320000     0.1279060000     1.0522480000 
 C        2.5023440000     0.1077710000     0.2998770000 
 C        3.1754080000    -1.2022820000    -0.0656870000 
 O        4.0525240000    -1.1444040000    -1.1639190000 
 C        4.9233560000    -0.0467940000    -1.0569300000 
 C        4.1456410000     1.2436070000    -1.1739580000 
 N        3.0551580000     1.2267720000    -0.2237370000 
 H        2.3907360000    -1.9203430000    -0.3033420000 
 H        3.6949150000    -1.5583730000     0.8370600000 
 H        5.6490850000    -0.1286120000    -1.8673560000 
 H        5.4644920000    -0.0781080000    -0.0989350000 
 H        3.7709790000     1.3532290000    -2.1989220000 
 H        4.8023600000     2.0927470000    -0.9618920000 
 H        2.5664610000     2.0823740000    -0.0096980000 
*
