! RI PBE def2-SVP def2-SVP/J NBO PAL2
% maxcore 2000
% output
    # printlevel mini
    print[ P_Basis ] 0
    print[ P_SCFInfo ] 1
    print[ P_SCFIterInfo ] 1
    print[ P_OrbEn ] 0
    print[ P_Cartesian ] 0
end
*xyz 0 1
 O        0.9356570000     0.0454420000     0.0037740000 
 C        2.1461710000     0.0124360000     0.0086230000 
 C        2.9343600000     1.3110400000    -0.0028700000 
 O        4.3539790000     1.2419330000     0.0032830000 
 C        4.9370030000     0.0242720000     0.0189060000 
 C        4.2712100000    -1.1238720000     0.0291250000 
 N        2.8710450000    -1.1277830000     0.0239690000 
 H        2.6096770000     1.8835700000     0.8713170000 
 H        2.6163470000     1.8639140000    -0.8920360000 
 H        6.0158500000     0.0783050000     0.0223260000 
 H        4.7720220000    -2.0787700000     0.0415450000 
 H        2.3542800000    -1.9918960000     0.0316380000 
*
