! RI PBE def2-SVP def2-SVP/J NBO PAL2
% maxcore 2000
% output
    # printlevel mini
    print[ P_Basis ] 0
    print[ P_SCFInfo ] 1
    print[ P_SCFIterInfo ] 1
    print[ P_OrbEn ] 0
    print[ P_Cartesian ] 0
end
*xyz 0 1
 O        0.8661930000     0.1214320000    -0.1230810000 
 C        2.0665460000     0.0478050000    -0.1070640000 
 C        2.8938500000     1.3045070000    -0.0962810000 
 O        4.3176320000     1.1972940000    -0.0768840000 
 N        4.9476910000    -0.0096330000    -0.0690690000 
 C        4.2817400000    -1.0889050000    -0.0782790000 
 C        2.8015860000    -1.2569470000    -0.0977350000 
 H        2.5950380000     1.8859170000     0.7822100000 
 H        2.6189440000     1.8852990000    -0.9829700000 
 H        4.9070040000    -1.9772100000    -0.0704350000 
 H        2.4624160000    -1.8358580000     0.7690920000 
 H        2.4852600000    -1.8355010000    -0.9733930000 
*
