! RI PBE def2-SVP def2-SVP/J NBO PAL2
% maxcore 2000
% output
    # printlevel mini
    print[ P_Basis ] 0
    print[ P_SCFInfo ] 1
    print[ P_SCFIterInfo ] 1
    print[ P_OrbEn ] 0
    print[ P_Cartesian ] 0
end
*xyz 0 1
 O        1.1119040000     0.0968370000     0.4782260000 
 C        2.2484380000     0.0340430000     0.1188610000 
 N        3.1546540000     0.9566160000    -0.3023980000 
 C        4.2384980000     0.0233920000    -0.5655480000 
 C        3.3062720000    -1.1029850000    -0.0408640000 
 C        2.9838150000    -2.1825920000    -0.9375500000 
 C        2.7077950000    -3.0732000000    -1.6932740000 
 H        3.0709190000     1.9521520000    -0.4333190000 
 H        5.1359260000     0.1914470000     0.0334790000 
 H        4.4987130000    -0.0772050000    -1.6204210000 
 H        3.6111710000    -1.4803770000     0.9384760000 
 H        2.4562850000    -3.8647170000    -2.3588570000 
*
