! RI PBE def2-SVP def2-SVP/J NBO PAL2
% maxcore 2000
% output
    # printlevel mini
    print[ P_Basis ] 0
    print[ P_SCFInfo ] 1
    print[ P_SCFIterInfo ] 1
    print[ P_OrbEn ] 0
    print[ P_Cartesian ] 0
end
*xyz 0 1
 O        1.1206910000     0.1203220000     0.5127330000 
 C        2.2468630000     0.0572880000     0.1306400000 
 N        3.1648320000     0.9711720000    -0.2800320000 
 C        4.2340760000     0.0290550000    -0.5715700000 
 C        3.2878140000    -1.0940760000    -0.0735770000 
 C        2.9395150000    -2.1232130000    -1.0220000000 
 N        2.6697550000    -2.9340010000    -1.7914890000 
 H        3.1021070000     1.9728090000    -0.3719170000 
 H        5.1324560000     0.1613980000     0.0339840000 
 H        4.4951220000    -0.0429600000    -1.6284520000 
 H        3.5861900000    -1.5372920000     0.8780810000 
*
