! RI PBE def2-SVP def2-SVP/J NBO PAL2
% maxcore 2000
% output
    # printlevel mini
    print[ P_Basis ] 0
    print[ P_SCFInfo ] 1
    print[ P_SCFIterInfo ] 1
    print[ P_OrbEn ] 0
    print[ P_Cartesian ] 0
end
*xyz 0 1
 O        1.5287300000     0.1410950000     0.8095340000 
 C        2.5233160000    -0.0541620000     0.1500280000 
 N        2.8198400000    -1.2006670000    -0.5295360000 
 C        4.1611480000    -1.2800510000    -1.0571500000 
 C        4.6792070000     0.1355930000    -0.8957670000 
 C        3.8881280000     1.2159650000    -1.5463780000 
 C        3.6555900000     0.8936770000    -0.0952660000 
 H        2.1840150000    -1.9790800000    -0.5081000000 
 H        4.1644320000    -1.6036830000    -2.1036260000 
 H        4.7771570000    -1.9828280000    -0.4834540000 
 H        5.7391990000     0.2785820000    -0.7347920000 
 H        3.1158800000     0.9459710000    -2.2583190000 
 H        4.3999450000     2.1462860000    -1.7580180000 
 H        3.8904010000     1.6173030000     0.6720240000 
*
