! RI PBE def2-SVP def2-SVP/J NBO PAL2
% maxcore 2000
% output
    # printlevel mini
    print[ P_Basis ] 0
    print[ P_SCFInfo ] 1
    print[ P_SCFIterInfo ] 1
    print[ P_OrbEn ] 0
    print[ P_Cartesian ] 0
end
*xyz 0 1
 O        1.5290690000     0.2158920000     0.9052920000 
 C        2.4972620000     0.0222030000     0.2093570000 
 N        2.8092120000    -1.1430200000    -0.4332140000 
 C        4.1325480000    -1.1887470000    -1.0074590000 
 C        4.5851750000     0.2542810000    -0.9343610000 
 N        3.7552370000     1.2493570000    -1.5737540000 
 C        3.5799300000     1.0030070000    -0.1430230000 
 H        2.1947590000    -1.9369290000    -0.3781370000 
 H        4.1181740000    -1.5639470000    -2.0369090000 
 H        4.8076410000    -1.8256080000    -0.4241830000 
 H        5.6458340000     0.4699080000    -0.8969720000 
 H        3.0029080000     0.8220380000    -2.1073160000 
 H        3.7848620000     1.8241460000     0.5306910000 
*
