! RI PBE def2-SVP def2-SVP/J NBO PAL2
% maxcore 2000
% output
    # printlevel mini
    print[ P_Basis ] 0
    print[ P_SCFInfo ] 1
    print[ P_SCFIterInfo ] 1
    print[ P_OrbEn ] 0
    print[ P_Cartesian ] 0
end
*xyz 0 1
 O        1.3770460000     0.0860480000     0.8154520000 
 C        2.3487550000    -0.1248760000     0.1306770000 
 N        2.7307030000    -1.3193420000    -0.4002460000 
 C        3.9933740000    -1.3209780000    -1.1020080000 
 C        4.3889130000     0.1363670000    -1.0820430000 
 O        3.4527620000     0.9718090000    -1.7317850000 
 C        3.3925260000     0.8727000000    -0.3100210000 
 H        2.1170030000    -2.1148760000    -0.3591770000 
 H        3.8941090000    -1.6894490000    -2.1281190000 
 H        4.7446970000    -1.9277490000    -0.5842990000 
 H        5.4301990000     0.4294650000    -1.1543930000 
 H        3.5667920000     1.7785800000     0.2570810000 
*
