! RI PBE def2-SVP def2-SVP/J NBO PAL2
% maxcore 2000
% output
    # printlevel mini
    print[ P_Basis ] 0
    print[ P_SCFInfo ] 1
    print[ P_SCFIterInfo ] 1
    print[ P_OrbEn ] 0
    print[ P_Cartesian ] 0
end
*xyz 0 1
 O        0.8859510000     0.0249740000     0.1984140000 
 C        2.0925960000     0.0523440000     0.0449170000 
 N        2.8244220000     1.1946760000     0.1923180000 
 C        4.1785630000     1.3092850000    -0.3064020000 
 C        4.9832770000     0.0805790000     0.0752760000 
 C        4.2114940000    -1.1644930000    -0.2205700000 
 C        2.8810930000    -1.1623830000    -0.2598130000 
 H        2.2685020000     2.0306920000     0.2811400000 
 H        4.6309370000     2.2087950000     0.1156960000 
 H        4.1857910000     1.4191290000    -1.4005240000 
 H        5.2314730000     0.1017560000     1.1448160000 
 H        5.9340480000     0.0828690000    -0.4639520000 
 H        4.7615190000    -2.0891930000    -0.3701680000 
 H        2.2996230000    -2.0562320000    -0.4478480000 
*
