! RI PBE def2-SVP def2-SVP/J NBO PAL2
% maxcore 2000
% output
    # printlevel mini
    print[ P_Basis ] 0
    print[ P_SCFInfo ] 1
    print[ P_SCFIterInfo ] 1
    print[ P_OrbEn ] 0
    print[ P_Cartesian ] 0
end
*xyz 0 1
 O        1.1258220000     0.1077160000     0.2089510000 
 C        2.3236120000     0.0486980000     0.0687240000 
 N        3.0586570000     1.2453230000    -0.0522840000 
 C        4.3905940000     1.3021260000    -0.2119220000 
 C        5.1010050000     0.1477400000    -0.2636330000 
 C        4.3486380000    -1.0463400000    -0.1407000000 
 N        3.0611220000    -1.1146290000     0.0139690000 
 H        2.5040010000     2.0871150000    -0.0102620000 
 H        4.8327400000     2.2883290000    -0.2922160000 
 H        6.1728920000     0.1424680000    -0.3906550000 
 H        4.8739180000    -2.0007560000    -0.1760820000 
*
