! RI PBE def2-SVP def2-SVP/J NBO PAL2
% maxcore 2000
% output
    # printlevel mini
    print[ P_Basis ] 0
    print[ P_SCFInfo ] 1
    print[ P_SCFIterInfo ] 1
    print[ P_OrbEn ] 0
    print[ P_Cartesian ] 0
end
*xyz 0 1
 O        1.4133810000     0.1151920000     1.0152510000 
 C        2.3779670000     0.0798840000     0.2716510000 
 N        2.9417380000    -1.0990620000    -0.1338130000 
 C        3.9341460000    -1.2206760000    -1.1757620000 
 C        4.8361010000    -0.0024250000    -1.1541300000 
 C        3.9933560000     1.2561950000    -1.2161570000 
 N        2.9981850000     1.2167040000    -0.1705400000 
 H        2.4034430000    -1.9048130000     0.1337790000 
 H        3.4689400000    -1.3187500000    -2.1676300000 
 H        4.5181840000    -2.1283080000    -1.0024430000 
 H        5.5272340000    -0.0327760000    -1.9989890000 
 H        5.4247860000    -0.0013630000    -0.2325800000 
 H        3.5317980000     1.3436140000    -2.2107450000 
 H        4.6204950000     2.1400320000    -1.0730320000 
 H        2.4986480000     2.0554520000     0.0694310000 
*
