! RI PBE def2-SVP def2-SVP/J NBO PAL2
% maxcore 2000
% output
    # printlevel mini
    print[ P_Basis ] 0
    print[ P_SCFInfo ] 1
    print[ P_SCFIterInfo ] 1
    print[ P_OrbEn ] 0
    print[ P_Cartesian ] 0
end
*xyz 0 1
 O        1.0511080000    -0.0237940000    -0.4695800000 
 C        2.1988910000     0.0884420000    -0.1593230000 
 N        2.9973010000     1.2597060000    -0.3446350000 
 C        4.1257950000     1.0018130000     0.1885320000 
 N        4.3053690000    -0.2337930000     0.8542620000 
 C        4.3295070000    -1.3236050000    -0.1318470000 
 C        3.0655440000    -0.9268830000     0.5383200000 
 H        4.9689630000     1.6854350000     0.1581980000 
 H        4.8275730000    -2.2292600000     0.1937320000 
 H        4.4685670000    -1.0499770000    -1.1728990000 
 H        2.6287920000    -1.5680840000     1.2927390000 
*
