! RI PBE def2-SVP def2-SVP/J NBO PAL2
% maxcore 2000
% output
    # printlevel mini
    print[ P_Basis ] 0
    print[ P_SCFInfo ] 1
    print[ P_SCFIterInfo ] 1
    print[ P_OrbEn ] 0
    print[ P_Cartesian ] 0
end
*xyz 0 1
 O        1.4241380000     0.1057520000     0.7187120000 
 C        2.4143930000    -0.0461630000     0.0451380000 
 N        2.7431730000    -1.1957650000    -0.6338700000 
 N        4.1288650000    -1.2587270000    -0.9549190000 
 C        4.6046300000     0.1093150000    -0.8396310000 
 C        3.9005830000     1.1718000000    -1.6172900000 
 C        3.5320400000     0.9167980000    -0.1785120000 
 H        2.3626290000    -2.0567030000    -0.2703890000 
 H        4.1924460000    -1.5431580000    -1.9290030000 
 H        5.6537920000     0.2116100000    -0.5937420000 
 H        3.1925780000     0.8786630000    -2.3841020000 
 H        4.4471820000     2.0848170000    -1.8164960000 
 H        3.7063590000     1.6653510000     0.5804160000 
*
