! RI PBE def2-SVP def2-SVP/J NBO PAL2
% maxcore 2000
% output
    # printlevel mini
    print[ P_Basis ] 0
    print[ P_SCFInfo ] 1
    print[ P_SCFIterInfo ] 1
    print[ P_OrbEn ] 0
    print[ P_Cartesian ] 0
end
*xyz 0 1
 O        1.3416360000    -0.0093850000     0.5916780000 
 C        2.3992480000    -0.1120350000     0.0212930000 
 N        2.8437600000    -1.2591840000    -0.6086580000 
 O        4.2347860000    -1.2525270000    -0.8024240000 
 C        4.6079490000     0.1004420000    -0.7295560000 
 C        3.9184100000     1.0612840000    -1.6201570000 
 C        3.4667300000     0.9025080000    -0.1800690000 
 H        2.5459410000    -2.1582610000    -0.2597780000 
 H        5.6441150000     0.2148980000    -0.4425830000 
 H        3.2704690000     0.6850380000    -2.4018530000 
 H        4.4512210000     1.9746570000    -1.8513070000 
 H        3.5440350000     1.7109670000     0.5319230000 
*
