! RI PBE def2-SVP def2-SVP/J NBO PAL2
% maxcore 2000
% output
    # printlevel mini
    print[ P_Basis ] 0
    print[ P_SCFInfo ] 1
    print[ P_SCFIterInfo ] 1
    print[ P_OrbEn ] 0
    print[ P_Cartesian ] 0
end
*xyz 0 1
 O        0.8947920000     0.1405090000    -0.2996160000 
 C        2.0930920000     0.0900700000    -0.1292990000 
 N        2.8820590000     1.2194100000    -0.2270750000 
 O        4.0984570000     1.2024690000     0.4726590000 
 C        4.9028370000     0.1739850000    -0.0584990000 
 C        4.1894460000    -1.1348170000     0.0202770000 
 C        2.8595700000    -1.1588190000     0.0430040000 
 H        2.4118170000     2.0962380000    -0.0515140000 
 H        5.8057040000     0.1737620000     0.5552690000 
 H        5.1889420000     0.3999310000    -1.0983490000 
 H        4.7763940000    -2.0477810000     0.0481620000 
 H        2.2792800000    -2.0699560000     0.1113910000 
*
