! RI PBE def2-SVP def2-SVP/J NBO PAL2
% maxcore 2000
% output
    # printlevel mini
    print[ P_Basis ] 0
    print[ P_SCFInfo ] 1
    print[ P_SCFIterInfo ] 1
    print[ P_OrbEn ] 0
    print[ P_Cartesian ] 0
end
*xyz 0 1
 O        1.1852830000     0.0778790000     0.5346560000 
 C        2.1981490000    -0.0744780000    -0.0741690000 
 O        2.4384750000    -1.1845400000    -0.8257510000 
 C        3.8108560000    -1.2585900000    -1.2111130000 
 C        4.3957370000     0.1039820000    -0.9439240000 
 N        3.7216510000     1.2244730000    -1.5518580000 
 C        3.3672130000     0.8468960000    -0.1836450000 
 H        3.8538430000    -1.5483590000    -2.2641720000 
 H        4.3048440000    -2.0276870000    -0.6107630000 
 H        5.4589110000     0.2098400000    -0.7657230000 
 H        3.0105170000     0.9277470000    -2.2149490000 
 H        3.5430110000     1.5729270000     0.5980110000 
*
