! RI PBE def2-SVP def2-SVP/J NBO PAL2
% maxcore 2000
% output
    # printlevel mini
    print[ P_Basis ] 0
    print[ P_SCFInfo ] 1
    print[ P_SCFIterInfo ] 1
    print[ P_OrbEn ] 0
    print[ P_Cartesian ] 0
end
*xyz 0 1
 O        2.1931070000    -0.8395980000     0.4152960000 
 C        2.1687320000     0.2584570000    -0.0629920000 
 C        3.3241870000     1.1781990000    -0.1080150000 
 C        3.4583070000     2.0824920000    -1.2982250000 
 C        3.0100510000     2.6633350000     0.0017480000 
 C        3.8986210000     3.4882270000     0.7619630000 
 N        4.6166620000     4.1525860000     1.3674920000 
 H        1.2402550000     0.6652160000    -0.5273920000 
 H        4.2271060000     0.8240580000     0.3726130000 
 H        2.7114960000     2.0069660000    -2.0792520000 
 H        4.4618850000     2.3052290000    -1.6334790000 
 H        1.9626910000     2.9315320000     0.0922440000 
*
