! RI PBE def2-SVP def2-SVP/J NBO PAL2
% maxcore 2000
% output
    # printlevel mini
    print[ P_Basis ] 0
    print[ P_SCFInfo ] 1
    print[ P_SCFIterInfo ] 1
    print[ P_OrbEn ] 0
    print[ P_Cartesian ] 0
end
*xyz 0 1
 O        2.1822680000     0.5394040000     1.2493820000 
 C        1.9243350000    -0.3105820000     0.4452940000 
 C        2.9259780000    -1.2381940000    -0.2081530000 
 C        4.1480370000    -1.5013250000     0.6710930000 
 C        3.7569350000    -2.7690360000     1.4215100000 
 C        3.0028310000    -3.5514160000     0.3525720000 
 N        2.3291370000    -2.5489520000    -0.4786590000 
 H        0.8712420000    -0.4689970000     0.1100630000 
 H        3.2170040000    -0.7428890000    -1.1472410000 
 H        4.3545030000    -0.6476840000     1.3171520000 
 H        5.0260860000    -1.6822000000     0.0462460000 
 H        3.0897820000    -2.5202780000     2.2530640000 
 H        4.6134440000    -3.3099800000     1.8272310000 
 H        2.2830450000    -4.2634000000     0.7621250000 
 H        3.7092710000    -4.1215580000    -0.2624430000 
 H        1.3308020000    -2.5402220000    -0.3154350000 
*
