! RI PBE def2-SVP def2-SVP/J NBO PAL2
% maxcore 2000
% output
    # printlevel mini
    print[ P_Basis ] 0
    print[ P_SCFInfo ] 1
    print[ P_SCFIterInfo ] 1
    print[ P_OrbEn ] 0
    print[ P_Cartesian ] 0
end
*xyz 0 1
 O        1.9445550000    -0.9465150000     0.6276140000 
 C        2.3157430000     0.2028960000    -0.1196170000 
 C        2.9242690000    -0.2382910000    -1.3979730000 
 C        3.9540120000     0.2803960000    -2.1443280000 
 C        4.0651030000    -0.5057580000    -3.3181360000 
 C        3.1068750000    -1.4837020000    -3.2443030000 
 N        2.4146820000    -1.2994160000    -2.0844680000 
 H        1.3897410000    -0.6654800000     1.3587680000 
 H        3.0406540000     0.8221540000     0.4220320000 
 H        1.4270770000     0.8231040000    -0.3114260000 
 H        4.5564070000     1.1352480000    -1.8769220000 
 H        4.7736260000    -0.3749940000    -4.1209250000 
 H        2.8743140000    -2.2969390000    -3.9127530000 
 H        1.7151550000    -1.9135140000    -1.7066520000 
*
