! RI PBE def2-SVP def2-SVP/J NBO PAL2
% maxcore 2000
% output
    # printlevel mini
    print[ P_Basis ] 0
    print[ P_SCFInfo ] 1
    print[ P_SCFIterInfo ] 1
    print[ P_OrbEn ] 0
    print[ P_Cartesian ] 0
end
*xyz 0 1
 O        2.5925680000     1.7977300000     0.8450130000 
 C        2.5228890000     0.6728410000     1.2782820000 
 C        2.1377110000    -0.4860700000     0.4828370000 
 C        2.0958590000    -1.7412220000     0.9352650000 
 C        1.7201820000    -2.6771360000    -0.1694030000 
 N        1.3338040000    -1.8123060000    -1.2867510000 
 C        1.7940330000    -0.4522590000    -0.9809360000 
 H        2.7548240000     0.4561050000     2.3426530000 
 H        2.3471510000    -2.0556520000     1.9421250000 
 H        0.9140110000    -3.3644790000     0.1065150000 
 H        2.5834930000    -3.3078520000    -0.4304620000 
 H        0.3280170000    -1.8106830000    -1.3711820000 
 H        1.0331550000     0.2952240000    -1.2180090000 
 H        2.6826010000    -0.1891200000    -1.5685560000 
*
