! RI PBE def2-SVP def2-SVP/J NBO PAL2
% maxcore 2000
% output
    # printlevel mini
    print[ P_Basis ] 0
    print[ P_SCFInfo ] 1
    print[ P_SCFIterInfo ] 1
    print[ P_OrbEn ] 0
    print[ P_Cartesian ] 0
end
*xyz 0 1
 O        0.9357850000    -0.0063670000     0.0284850000 
 C        2.2692360000    -0.0632730000     0.0029250000 
 C        2.9490080000    -0.7084700000    -0.9612040000 
 C        4.3879630000    -0.8308720000    -1.0827100000 
 C        4.5874360000    -1.5610170000    -2.2009240000 
 N        3.3854310000    -1.9306670000    -2.8278340000 
 C        2.4304480000    -1.4362420000    -2.1088280000 
 H        0.6364160000     0.4963690000     0.7903830000 
 H        2.7930790000     0.4441330000     0.8107110000 
 H        5.1290870000    -0.4199470000    -0.4135400000 
 H        5.5276960000    -1.8707730000    -2.6353280000 
 H        1.3854330000    -1.5677630000    -2.3607260000 
*
