! RI PBE def2-SVP def2-SVP/J NBO PAL2
% maxcore 2000
% output
    # printlevel mini
    print[ P_Basis ] 0
    print[ P_SCFInfo ] 1
    print[ P_SCFIterInfo ] 1
    print[ P_OrbEn ] 0
    print[ P_Cartesian ] 0
end
*xyz 0 1
 O        0.9152320000    -0.3210960000     0.2513170000 
 C        2.3221500000    -0.1772650000     0.1553760000 
 C        2.7675610000     0.9036510000     1.0706710000 
 C        3.7224270000     0.8346620000     1.9903390000 
 C        3.9314910000     2.1577920000     2.6505700000 
 N        2.7879720000     2.9377720000     2.1857300000 
 C        2.2068090000     2.2933410000     1.0111540000 
 H        0.6227650000    -0.9060860000    -0.4509860000 
 H        2.6067290000     0.0866560000    -0.8752910000 
 H        2.8370910000    -1.1116140000     0.4136430000 
 H        4.2999490000    -0.0489260000     2.2345740000 
 H        4.9076800000     2.5836270000     2.3595990000 
 H        3.9395220000     2.0792140000     3.7454200000 
 H        3.0154620000     3.9066130000     2.0260660000 
 H        2.4889560000     2.7710770000     0.0556430000 
 H        1.1125040000     2.2920820000     1.0539750000 
*
