! RI PBE def2-SVP def2-SVP/J NBO PAL2
% maxcore 2000
% output
    # printlevel mini
    print[ P_Basis ] 0
    print[ P_SCFInfo ] 1
    print[ P_SCFIterInfo ] 1
    print[ P_OrbEn ] 0
    print[ P_Cartesian ] 0
end
*xyz 0 1
 O        0.9880010000    -0.0761760000     0.0295430000 
 C        2.3088710000    -0.0767640000     0.0335290000 
 C        3.0497600000    -1.1845090000    -0.1974410000 
 C        4.4807670000    -1.2892630000    -0.2150310000 
 C        4.6886550000    -2.5948810000    -0.4893740000 
 N        3.4643510000    -3.2602300000    -0.6332820000 
 N        2.5025410000    -2.4423650000    -0.4640440000 
 H        0.6498700000     0.8050150000     0.2140510000 
 H        2.8060720000     0.8703130000     0.2345250000 
 H        5.2029650000    -0.5055250000    -0.0477200000 
 H        5.6113360000    -3.1439970000    -0.6021560000 
*
