! RI PBE def2-SVP def2-SVP/J NBO PAL2
% maxcore 2000
% output
    # printlevel mini
    print[ P_Basis ] 0
    print[ P_SCFInfo ] 1
    print[ P_SCFIterInfo ] 1
    print[ P_OrbEn ] 0
    print[ P_Cartesian ] 0
end
*xyz 0 1
 O        3.6621420000     0.2470840000     0.9162060000 
 C        2.6088270000    -0.1515200000     0.0619960000 
 C        2.7853470000     0.5704940000    -1.2473220000 
 C        1.7500780000     0.2358860000    -2.3212560000 
 C        1.6498760000     1.5730010000    -2.9998240000 
 N        2.1361940000     2.5246680000    -2.3066200000 
 N        2.5914190000     2.0165890000    -1.1121570000 
 H        3.4882920000    -0.0828850000     1.7999660000 
 H        1.6302190000     0.1146240000     0.4816780000 
 H        2.6316500000    -1.2368490000    -0.1116910000 
 H        3.7955680000     0.3544240000    -1.6288550000 
 H        0.7827700000    -0.0366340000    -1.8752040000 
 H        2.0527080000    -0.5772780000    -2.9815510000 
 H        1.1636400000     1.7755410000    -3.9453430000 
 H        3.3831910000     2.5388460000    -0.7687240000 
*
