! RI PBE def2-SVP def2-SVP/J NBO PAL2
% maxcore 2000
% output
    # printlevel mini
    print[ P_Basis ] 0
    print[ P_SCFInfo ] 1
    print[ P_SCFIterInfo ] 1
    print[ P_OrbEn ] 0
    print[ P_Cartesian ] 0
end
*xyz 0 1
 O        2.1574390000    -1.1200530000    -0.9037950000 
 C        2.1869140000    -0.0094920000    -0.0301920000 
 C        2.6459700000     1.1754020000    -0.8069110000 
 C        2.8548560000     2.4926130000    -0.4599390000 
 C        3.2877370000     3.1013340000    -1.6502980000 
 N        3.3438370000     2.2388160000    -2.6519360000 
 N        2.9507760000     1.0842730000    -2.1128680000 
 H        1.8587510000    -1.8905340000    -0.4173680000 
 H        2.8716140000    -0.1862780000     0.8100430000 
 H        1.1917830000     0.1890370000     0.3897340000 
 H        2.7152170000     2.9452690000     0.5083660000 
 H        3.5604370000     4.1329360000    -1.8167660000 
 H        2.9015700000     0.2477680000    -2.6683710000 
*
