! RI PBE def2-SVP def2-SVP/J NBO PAL2
% maxcore 2000
% output
    # printlevel mini
    print[ P_Basis ] 0
    print[ P_SCFInfo ] 1
    print[ P_SCFIterInfo ] 1
    print[ P_OrbEn ] 0
    print[ P_Cartesian ] 0
end
*xyz 0 1
 O        2.4242860000    -1.0658330000     0.4425410000 
 C        2.2446870000     0.0194600000    -0.0382750000 
 C        2.9697320000     0.5485780000    -1.1970910000 
 C        2.8656620000     1.7464470000    -1.8336360000 
 C        3.8251460000     1.6464690000    -2.8628710000 
 N        4.4381320000     0.4938000000    -2.8341360000 
 O        3.9057860000    -0.1996810000    -1.7910110000 
 H        1.4958070000     0.7276510000     0.3690700000 
 H        2.2065750000     2.5661290000    -1.6000110000 
 H        4.0922880000     2.3673800000    -3.6213800000 
*
