! RI PBE def2-SVP def2-SVP/J NBO PAL2
% maxcore 2000
% output
    # printlevel mini
    print[ P_Basis ] 0
    print[ P_SCFInfo ] 1
    print[ P_SCFIterInfo ] 1
    print[ P_OrbEn ] 0
    print[ P_Cartesian ] 0
end
*xyz 0 1
 O        2.2639540000    -0.6421400000     1.1587860000 
 C        2.0773160000    -0.0236460000     0.1502970000 
 C        2.7859530000    -0.3162690000    -1.1621350000 
 C        3.0866880000    -1.7918410000    -1.3667940000 
 C        2.0144360000    -2.1071740000    -2.3589220000 
 N        1.4055620000    -1.0944800000    -2.8184750000 
 O        1.9186200000     0.0569980000    -2.2428480000 
 H        1.3686050000     0.8279900000     0.1014080000 
 H        3.6704250000     0.3275130000    -1.2108220000 
 H        2.9980680000    -2.3488030000    -0.4314040000 
 H        4.0788730000    -1.9837530000    -1.7845080000 
 H        1.7441190000    -3.0900970000    -2.7222810000 
*
