! RI PBE def2-SVP def2-SVP/J NBO PAL2
% maxcore 2000
% output
    # printlevel mini
    print[ P_Basis ] 0
    print[ P_SCFInfo ] 1
    print[ P_SCFIterInfo ] 1
    print[ P_OrbEn ] 0
    print[ P_Cartesian ] 0
end
*xyz 0 1
 O        3.2547600000    -0.8610140000     0.3922720000 
 C        2.2514370000     0.0087740000    -0.0693140000 
 C        2.9004910000     1.2691050000    -0.5921810000 
 C        1.9053750000     2.2158880000    -1.2612290000 
 C        1.9124040000     3.3351890000    -0.2727490000 
 N        2.7549550000     3.1996340000     0.6649610000 
 O        3.4517030000     2.0264700000     0.5096730000 
 H        2.8639590000    -1.5043060000     0.9862740000 
 H        1.5488480000     0.2856280000     0.7283160000 
 H        1.6757390000    -0.4488400000    -0.8886920000 
 H        3.7382310000     0.9980330000    -1.2389030000 
 H        0.9118250000     1.7710370000    -1.3745530000 
 H        2.2243180000     2.5533370000    -2.2511350000 
 H        1.2911460000     4.2209550000    -0.2996390000 
*
