! RI PBE def2-SVP def2-SVP/J NBO PAL2
% maxcore 2000
% output
    # printlevel mini
    print[ P_Basis ] 0
    print[ P_SCFInfo ] 1
    print[ P_SCFIterInfo ] 1
    print[ P_OrbEn ] 0
    print[ P_Cartesian ] 0
end
*xyz 0 1
 O        2.2879090000     0.1557480000    -1.2056060000 
 C        2.6752590000     0.1648670000     0.1498970000 
 C        2.8955490000    -1.2480070000     0.5788910000 
 N        3.2635500000    -1.5200080000     1.8002300000 
 O        3.3766730000    -2.8860130000     1.8656570000 
 C        3.0722550000    -3.4038990000     0.6758830000 
 C        2.7543790000    -2.4243800000    -0.1990450000 
 H        2.1465090000     1.0619940000    -1.4863880000 
 H        1.9034840000     0.6143420000     0.7874110000 
 H        3.6026450000     0.7315910000     0.3010900000 
 H        3.1247710000    -4.4787980000     0.5997680000 
 H        2.4643170000    -2.5011380000    -1.2319870000 
*
