! RI PBE def2-SVP def2-SVP/J NBO PAL2
% maxcore 2000
% output
    # printlevel mini
    print[ P_Basis ] 0
    print[ P_SCFInfo ] 1
    print[ P_SCFIterInfo ] 1
    print[ P_OrbEn ] 0
    print[ P_Cartesian ] 0
end
*xyz 0 1
 O        2.4251660000    -1.1440720000     0.4039710000 
 C        2.1826090000    -0.0091540000     0.0911080000 
 C        2.8894230000     0.6926980000    -0.9937800000 
 N        2.5607400000     1.9308050000    -1.2674000000 
 O        3.3629210000     2.3126620000    -2.2924800000 
 C        4.1702650000     1.2947490000    -2.6266880000 
 C        3.9257600000     0.2261130000    -1.8406060000 
 H        1.4072560000     0.5936630000     0.5993660000 
 H        4.8567810000     1.4854210000    -3.4362520000 
 H        4.3912780000    -0.7441950000    -1.8426390000 
*
