! RI PBE def2-SVP def2-SVP/J NBO PAL2
% maxcore 2000
% output
    # printlevel mini
    print[ P_Basis ] 0
    print[ P_SCFInfo ] 1
    print[ P_SCFIterInfo ] 1
    print[ P_OrbEn ] 0
    print[ P_Cartesian ] 0
end
*xyz 0 1
 O        1.4146910000     0.5580130000     0.3460610000 
 C        2.3491920000    -0.1533900000     0.1102240000 
 C        2.8813250000    -0.4172190000    -1.2720930000 
 C        4.3419300000     0.0711450000    -1.4826040000 
 C        4.6774190000    -1.4050170000    -1.7341470000 
 O        5.6509060000    -2.0260370000    -2.0394730000 
 N        3.3818670000    -1.7682840000    -1.4746410000 
 H        2.9130800000    -0.6690580000     0.9200400000 
 H        2.1700410000    -0.0644920000    -2.0222490000 
 H        4.8292570000     0.4915920000    -0.6017930000 
 H        4.4876150000     0.7285230000    -2.3380510000 
 H        2.9043650000    -2.6511850000    -1.5733630000 
*
