! RI PBE def2-SVP def2-SVP/J NBO PAL2
% maxcore 2000
% output
    # printlevel mini
    print[ P_Basis ] 0
    print[ P_SCFInfo ] 1
    print[ P_SCFIterInfo ] 1
    print[ P_OrbEn ] 0
    print[ P_Cartesian ] 0
end
*xyz 0 1
 O        2.9069930000    -1.3399250000     0.0428130000 
 C        2.5366390000     0.0226300000     0.0615760000 
 C        2.8549430000     0.5968080000    -1.2924840000 
 C        2.8001300000     2.1352530000    -1.4119690000 
 C        4.3054510000     2.0509930000    -1.7117110000 
 O        5.1791290000     2.8342910000    -1.9551780000 
 N        4.2772630000     0.6925590000    -1.5955890000 
 H        2.7802090000    -1.7112840000     0.9184850000 
 H        3.0943200000     0.5782920000     0.8281820000 
 H        1.4619430000     0.1439000000     0.2590220000 
 H        2.2905030000     0.0626340000    -2.0630670000 
 H        2.5612270000     2.6686730000    -0.4910160000 
 H        2.2021340000     2.5260420000    -2.2340850000 
 H        4.9946150000    -0.0112650000    -1.6696690000 
*
