! RI PBE def2-SVP def2-SVP/J NBO PAL2
% maxcore 2000
% output
    # printlevel mini
    print[ P_Basis ] 0
    print[ P_SCFInfo ] 1
    print[ P_SCFIterInfo ] 1
    print[ P_OrbEn ] 0
    print[ P_Cartesian ] 0
end
*xyz 0 1
 O        2.4138390000    -0.9408120000     0.9616490000 
 C        2.3462240000    -0.0563210000     0.1560360000 
 C        3.1964480000     1.1611780000     0.1948370000 
 C        3.7942050000     1.6722720000    -1.0889740000 
 N        2.6744340000     2.3199470000    -0.4964410000 
 C        2.7206650000     3.6001390000     0.0303150000 
 O        3.2938230000     4.5213410000    -0.4795660000 
 H        1.6380030000    -0.0864710000    -0.7000380000 
 H        3.7732610000     1.3077580000     1.1037650000 
 H        3.6039250000     1.1356140000    -2.0127000000 
 H        4.7579680000     2.1657660000    -1.0165980000 
 H        2.1134960000     3.6926880000     0.9479160000 
*
