! RI PBE def2-SVP def2-SVP/J NBO PAL2
% maxcore 2000
% output
    # printlevel mini
    print[ P_Basis ] 0
    print[ P_SCFInfo ] 1
    print[ P_SCFIterInfo ] 1
    print[ P_OrbEn ] 0
    print[ P_Cartesian ] 0
end
*xyz 0 1
 O        5.7315040000     0.0442110000    -0.5184830000 
 C        4.5108600000     0.6051560000    -0.0921860000 
 C        3.9657180000    -0.2798520000     0.9885190000 
 C        4.3682960000    -0.0380140000     2.4061590000 
 N        3.0429240000     0.2623980000     1.9526370000 
 C        2.4780480000     1.5137020000     1.9370160000 
 O        2.5878730000     2.3316260000     2.8126080000 
 H        6.0357790000     0.5185380000    -1.2954250000 
 H        3.7926000000     0.6639220000    -0.9216410000 
 H        4.6465970000     1.6208290000     0.3086290000 
 H        3.7643510000    -1.3026600000     0.6811090000 
 H        5.0207150000     0.8062860000     2.6075740000 
 H        4.4616590000    -0.8779000000     3.0853720000 
 H        1.8333870000     1.6681680000     1.0517130000 
*
