! RI PBE def2-SVP def2-SVP/J NBO PAL2
% maxcore 2000
% output
    # printlevel mini
    print[ P_Basis ] 0
    print[ P_SCFInfo ] 1
    print[ P_SCFIterInfo ] 1
    print[ P_OrbEn ] 0
    print[ P_Cartesian ] 0
end
*xyz 0 1
 O        1.3892020000     0.2957770000     1.0875250000 
 C        1.8911300000    -0.1515690000     0.0931290000 
 C        3.0752300000    -1.0664390000     0.0811750000 
 C        3.6051040000    -1.5690850000     1.4322010000 
 N        3.2045860000    -2.9113820000     1.0200020000 
 C        2.7113800000    -2.5602400000    -0.1939300000 
 O        2.2064350000    -3.1608240000    -1.0956320000 
 H        1.4788760000     0.0780390000    -0.9098820000 
 H        3.8247340000    -0.7067960000    -0.6279980000 
 H        3.0549100000    -1.1787570000     2.2889530000 
 H        4.6806650000    -1.4510590000     1.5760650000 
 H        3.2430480000    -3.8062660000     1.4818020000 
*
