! RI PBE def2-SVP def2-SVP/J NBO PAL2
% maxcore 2000
% output
    # printlevel mini
    print[ P_Basis ] 0
    print[ P_SCFInfo ] 1
    print[ P_SCFIterInfo ] 1
    print[ P_OrbEn ] 0
    print[ P_Cartesian ] 0
end
*xyz 0 1
 O        1.0939590000     0.1414410000     0.0443130000 
 C        2.4646600000    -0.1646270000     0.1350910000 
 C        2.8630970000    -0.9303380000    -1.1030910000 
 C        4.3530680000    -1.3261980000    -1.2134540000 
 N        3.9195790000    -2.7140580000    -1.2283120000 
 C        2.5840330000    -2.4489320000    -1.1126450000 
 O        1.6214290000    -3.1571750000    -1.0402350000 
 H        0.7679390000     0.3788000000     0.9146000000 
 H        2.6866210000    -0.7675220000     1.0267650000 
 H        3.0693650000     0.7530180000     0.1968800000 
 H        2.4704260000    -0.4305870000    -1.9909550000 
 H        4.9596940000    -1.0576670000    -0.3430290000 
 H        4.8560370000    -0.9983690000    -2.1262020000 
 H        4.4257920000    -3.5834750000    -1.2845150000 
*
