! RI PBE def2-SVP def2-SVP/J NBO PAL2
% maxcore 2000
% output
    # printlevel mini
    print[ P_Basis ] 0
    print[ P_SCFInfo ] 1
    print[ P_SCFIterInfo ] 1
    print[ P_OrbEn ] 0
    print[ P_Cartesian ] 0
end
*xyz 0 1
 O        2.6193890000     1.2079850000     0.0339960000 
 C        2.1796610000     0.0925920000     0.0265420000 
 C        2.8930270000    -1.0961020000    -0.5560910000 
 C        3.4336750000    -2.0310930000     0.5665560000 
 N        3.1380130000    -3.3914030000     0.1299480000 
 C        2.3484590000    -3.2841970000    -0.8553710000 
 N        1.9838780000    -2.0059860000    -1.2370890000 
 H        1.1987570000    -0.1541340000     0.4894880000 
 H        3.6993960000    -0.7408580000    -1.2067740000 
 H        2.9200710000    -1.8442380000     1.5177370000 
 H        4.5007600000    -1.8886610000     0.7384320000 
 H        1.9244660000    -4.1354720000    -1.3796640000 
 H        1.7681470000    -1.8358250000    -2.2067100000 
*
