! RI PBE def2-SVP def2-SVP/J NBO PAL2
% maxcore 2000
% output
    # printlevel mini
    print[ P_Basis ] 0
    print[ P_SCFInfo ] 1
    print[ P_SCFIterInfo ] 1
    print[ P_OrbEn ] 0
    print[ P_Cartesian ] 0
end
*xyz 0 1
 O        3.0236930000     1.1304750000     0.2215380000 
 C        2.2755230000    -0.0529640000     0.0193160000 
 C        3.2230510000    -1.2300330000     0.1265250000 
 C        2.5542510000    -2.5555340000    -0.2909110000 
 N        2.9759340000    -2.8046700000    -1.6712580000 
 C        3.9187080000    -1.9808840000    -1.8944330000 
 N        4.2918350000    -1.1483730000    -0.8642390000 
 H        2.4564280000     1.8884690000     0.0662700000 
 H        1.8043800000    -0.0603740000    -0.9736340000 
 H        1.4858290000    -0.1606460000     0.7754970000 
 H        3.6385380000    -1.2629120000     1.1366890000 
 H        1.4631380000    -2.5131420000    -0.2219550000 
 H        2.8861580000    -3.3864050000     0.3404510000 
 H        4.4590420000    -1.9392310000    -2.8360980000 
 H        4.6594820000    -0.2320770000    -1.0718680000 
*
