! RI PBE def2-SVP def2-SVP/J NBO PAL2
% maxcore 2000
% output
    # printlevel mini
    print[ P_Basis ] 0
    print[ P_SCFInfo ] 1
    print[ P_SCFIterInfo ] 1
    print[ P_OrbEn ] 0
    print[ P_Cartesian ] 0
end
*xyz 0 1
 O        2.2459750000    -0.9379310000    -1.0019600000 
 C        2.2160400000     0.1068180000    -0.0470470000 
 C        2.7875220000     1.3250800000    -0.6869910000 
 C        3.0141510000     2.6031510000    -0.2527940000 
 N        3.5691410000     3.3574210000    -1.2499890000 
 C        3.6783660000     2.5521610000    -2.2735890000 
 N        3.2185060000     1.3116020000    -1.9817480000 
 H        1.8770610000    -1.7296110000    -0.6062370000 
 H        2.8036030000    -0.1594100000     0.8414830000 
 H        1.1874540000     0.3046390000     0.2825100000 
 H        2.8083330000     3.0202440000     0.7215910000 
 H        4.0794820000     2.8097890000    -3.2423220000 
 H        3.1830660000     0.5017470000    -2.5771150000 
*
