! RI PBE def2-SVP def2-SVP/J NBO PAL2
% maxcore 2000
% output
    # printlevel mini
    print[ P_Basis ] 0
    print[ P_SCFInfo ] 1
    print[ P_SCFIterInfo ] 1
    print[ P_OrbEn ] 0
    print[ P_Cartesian ] 0
end
*xyz 0 1
 O        1.0031230000    -0.5949540000    -0.1140470000 
 C        2.2775230000    -0.0069300000     0.0643110000 
 C        2.7372200000     0.5806310000    -1.2084060000 
 C        2.9093810000     1.8431680000    -1.6585960000 
 N        3.3819510000     1.8106710000    -2.9546320000 
 C        3.4684470000     0.5553140000    -3.2205750000 
 O        3.1022880000    -0.2590090000    -2.2190450000 
 H        0.8112440000    -1.1375890000     0.6546810000 
 H        3.0091840000    -0.7529800000     0.4020810000 
 H        2.2487350000     0.7983860000     0.8090990000 
 H        2.7239690000     2.7708060000    -1.1404710000 
 H        3.7936350000     0.0881860000    -4.1374090000 
*
