! RI PBE def2-SVP def2-SVP/J NBO PAL2
% maxcore 2000
% output
    # printlevel mini
    print[ P_Basis ] 0
    print[ P_SCFInfo ] 1
    print[ P_SCFIterInfo ] 1
    print[ P_OrbEn ] 0
    print[ P_Cartesian ] 0
end
*xyz 0 1
 O        1.2453560000    -0.4235030000    -0.7156520000 
 C        2.1724880000    -0.0488860000    -0.0449700000 
 C        2.9122740000    -0.8737930000     0.8921190000 
 C        3.9662160000    -0.6047200000     1.7101050000 
 N        4.3025310000    -1.7356760000     2.4067830000 
 C        3.4556840000    -2.6184420000     1.9881420000 
 O        2.5846550000    -2.1824510000     1.0764000000 
 H        2.5482590000     0.9931880000    -0.0925340000 
 H        4.4963580000     0.3267970000     1.8365320000 
 H        3.3753690000    -3.6522250000     2.2885730000 
*
