! RI PBE def2-SVP def2-SVP/J NBO PAL2
% maxcore 2000
% output
    # printlevel mini
    print[ P_Basis ] 0
    print[ P_SCFInfo ] 1
    print[ P_SCFIterInfo ] 1
    print[ P_OrbEn ] 0
    print[ P_Cartesian ] 0
end
*xyz 0 1
 O        2.4481630000    -1.5606570000     0.1142330000 
 C        2.4237280000    -0.1521530000     0.1463900000 
 C        2.9521590000     0.3427660000    -1.1920110000 
 C        3.0158130000     1.8217300000    -1.3448270000 
 N        2.3553030000     2.2440150000    -2.3518100000 
 N        1.7540870000     1.1241390000    -3.0012920000 
 C        2.0772970000     0.0660520000    -2.3635880000 
 H        2.0361280000    -1.8967680000     0.9135680000 
 H        3.0604310000     0.2396130000     0.9503700000 
 H        1.4069760000     0.2311250000     0.2996620000 
 H        3.9442610000    -0.1053410000    -1.3463720000 
 H        3.5582180000     2.5087760000    -0.7047570000 
 H        1.7293350000    -0.9112960000    -2.6748570000 
*
