! RI PBE def2-SVP def2-SVP/J NBO PAL2
% maxcore 2000
% output
    # printlevel mini
    print[ P_Basis ] 0
    print[ P_SCFInfo ] 1
    print[ P_SCFIterInfo ] 1
    print[ P_OrbEn ] 0
    print[ P_Cartesian ] 0
end
*xyz 0 1
 O        2.9978240000     1.1784590000    -0.6303110000 
 C        2.4926650000    -0.0499460000    -0.1521000000 
 C        2.7082360000    -0.0928340000     1.3444170000 
 C        2.2354660000    -1.3849730000     2.0123510000 
 N        1.7964020000    -0.9026010000     3.3227860000 
 N        1.3985390000     0.4133780000     3.2010830000 
 C        1.9004840000     0.8996710000     2.1369410000 
 H        2.8341640000     1.2346460000    -1.5740760000 
 H        3.0096940000    -0.8989340000    -0.6223220000 
 H        1.4193080000    -0.1498890000    -0.3667940000 
 H        3.7765340000     0.0785250000     1.5357950000 
 H        3.0188050000    -2.1365900000     2.1126930000 
 H        1.4004090000    -1.8192510000     1.4396820000 
 H        1.0749430000    -1.4447490000     3.7746300000 
 H        1.7806380000     1.9469790000     1.8935460000 
*
