! RI PBE def2-SVP def2-SVP/J NBO PAL2
% maxcore 2000
% output
    # printlevel mini
    print[ P_Basis ] 0
    print[ P_SCFInfo ] 1
    print[ P_SCFIterInfo ] 1
    print[ P_OrbEn ] 0
    print[ P_Cartesian ] 0
end
*xyz 0 1
 O        1.4172030000    -0.6712380000    -0.6266760000 
 C        2.1080950000     0.0891390000    -0.0045430000 
 C        2.8548070000    -0.2498280000     1.2074750000 
 C        3.6415800000     0.5913380000     1.9273440000 
 O        4.1511970000    -0.0959150000     2.9665340000 
 C        3.6395360000    -1.3434140000     2.8240740000 
 N        2.8723450000    -1.4958740000     1.8115700000 
 H        2.2322520000     1.1469630000    -0.3211470000 
 H        3.9189030000     1.6284600000     1.8367220000 
 H        3.9268810000    -2.0704230000     3.5678670000 
*
