! RI PBE def2-SVP def2-SVP/J NBO PAL2
% maxcore 2000
% output
    # printlevel mini
    print[ P_Basis ] 0
    print[ P_SCFInfo ] 1
    print[ P_SCFIterInfo ] 1
    print[ P_OrbEn ] 0
    print[ P_Cartesian ] 0
end
*xyz 0 1
 O        2.9172330000     0.0131270000    -1.1133600000 
 C        2.3005720000     0.1519760000    -0.0877580000 
 C        2.9088180000     0.7144090000     1.1399300000 
 N        4.3512750000     0.8317010000     1.1915110000 
 C        3.5913840000     2.0463310000     0.9674640000 
 C        3.5464440000     3.0286700000     2.0102480000 
 C        3.4895550000     3.8686540000     2.8653920000 
 H        1.2335890000    -0.1349180000    -0.0161880000 
 H        2.4081020000     0.5187480000     2.0816660000 
 H        4.7174070000     0.5104560000     0.2956590000 
 H        3.5701530000     2.4396730000    -0.0459040000 
 H        3.4491580000     4.6101720000     3.6280390000 
*
