! RI PBE def2-SVP def2-SVP/J NBO PAL2
% maxcore 2000
% output
    # printlevel mini
    print[ P_Basis ] 0
    print[ P_SCFInfo ] 1
    print[ P_SCFIterInfo ] 1
    print[ P_OrbEn ] 0
    print[ P_Cartesian ] 0
end
*xyz 0 1
 O        0.8740610000    -0.4034790000     0.1910120000 
 C        2.2288710000    -0.0692880000    -0.0253040000 
 C        2.8198910000    -1.0276940000    -1.0195640000 
 N        2.4483480000    -2.4357040000    -0.9801800000 
 C        2.0143810000    -1.6001790000    -2.1101770000 
 C        2.6275420000    -1.9960780000    -3.4199750000 
 O        2.1355200000    -3.2412140000    -3.8601540000 
 H        0.5349380000     0.1273610000     0.9137920000 
 H        2.8000290000    -0.1332350000     0.9116380000 
 H        2.3304950000     0.9547990000    -0.4107940000 
 H        3.8781450000    -0.8526100000    -1.2016020000 
 H        1.6690440000    -2.5418890000    -0.3368010000 
 H        0.9617160000    -1.3343190000    -2.1345970000 
 H        3.7213330000    -2.0216630000    -3.3138110000 
 H        2.3813090000    -1.2689120000    -4.1979740000 
 H        2.2733790000    -3.8544880000    -3.1300900000 
*
