! RI PBE def2-SVP def2-SVP/J NBO PAL2
% maxcore 2000
% output
    # printlevel mini
    print[ P_Basis ] 0
    print[ P_SCFInfo ] 1
    print[ P_SCFIterInfo ] 1
    print[ P_OrbEn ] 0
    print[ P_Cartesian ] 0
end
*xyz 0 1
 O        0.8889230000    -0.1845990000    -0.1703310000 
 C        1.9990980000     0.2416630000     0.0177840000 
 C        2.9990310000     0.3798140000    -1.0696030000 
 N        2.7233140000    -0.2586920000    -2.3306490000 
 C        2.5517750000     1.1819200000    -2.2593650000 
 C        3.5681530000     2.0161850000    -2.9661300000 
 O        4.7397960000     1.7654240000    -2.9859670000 
 H        2.3316860000     0.5546430000     1.0263570000 
 H        4.0466880000     0.4566960000    -0.7966840000 
 H        1.8025170000    -0.6929440000    -2.2626770000 
 H        1.5386900000     1.5735130000    -2.2311100000 
 H        3.1640300000     2.9172860000    -3.4727260000 
*
