! RI PBE def2-SVP def2-SVP/J NBO PAL2
% maxcore 2000
% output
    # printlevel mini
    print[ P_Basis ] 0
    print[ P_SCFInfo ] 1
    print[ P_SCFIterInfo ] 1
    print[ P_OrbEn ] 0
    print[ P_Cartesian ] 0
end
*xyz 0 1
 O        2.9902030000    -0.4776330000    -1.1692490000 
 C        2.3845390000    -0.0378080000     0.0253930000 
 C        2.8513310000    -0.9130000000     1.1551410000 
 N        3.1203580000    -2.3115970000     0.9437410000 
 C        4.2554310000    -1.4050070000     1.1764310000 
 C        4.9296470000    -1.5684130000     2.4807780000 
 O        6.0483230000    -1.1989530000     2.7164660000 
 H        2.6687770000     0.0554500000    -1.8985640000 
 H        1.2896240000    -0.1076420000    -0.0409510000 
 H        2.6435590000     1.0055430000     0.2496830000 
 H        2.3729210000    -0.6861510000     2.1054720000 
 H        3.0800340000    -2.5126730000    -0.0518340000 
 H        4.8863250000    -1.1278260000     0.3389540000 
 H        4.3013270000    -2.0633700000     3.2536290000 
*
