! RI PBE def2-SVP def2-SVP/J NBO PAL2
% maxcore 2000
% output
    # printlevel mini
    print[ P_Basis ] 0
    print[ P_SCFInfo ] 1
    print[ P_SCFIterInfo ] 1
    print[ P_OrbEn ] 0
    print[ P_Cartesian ] 0
end
*xyz 0 1
 O        1.0638340000     0.2648380000    -0.0844890000 
 C        2.4082450000    -0.0882230000     0.1479320000 
 C        2.8225900000    -1.0878910000    -0.8975560000 
 N        4.2440050000    -1.5117280000    -0.8497770000 
 C        3.8319410000    -2.9184210000    -1.0875740000 
 C        2.3698220000    -2.5571010000    -0.7833670000 
 O        1.3398120000    -3.0582960000    -1.5755820000 
 H        0.7846780000     0.8847630000     0.5924250000 
 H        2.5384980000    -0.5345410000     1.1466200000 
 H        3.0717290000     0.7871530000     0.0833810000 
 H        2.5891240000    -0.6765970000    -1.8890130000 
 H        4.6026510000    -1.4112080000     0.0937940000 
 H        4.3164370000    -3.6720190000    -0.4631640000 
 H        3.9824840000    -3.1888410000    -2.1389630000 
 H        2.1043920000    -2.7982060000     0.2499780000 
 H        1.5044580000    -2.8038810000    -2.4881430000 
*
