! RI PBE def2-SVP def2-SVP/J NBO PAL2
% maxcore 2000
% output
    # printlevel mini
    print[ P_Basis ] 0
    print[ P_SCFInfo ] 1
    print[ P_SCFIterInfo ] 1
    print[ P_OrbEn ] 0
    print[ P_Cartesian ] 0
end
*xyz 0 1
 O        1.0801500000     0.0813470000     0.1660270000 
 C        2.4547280000    -0.1765120000     0.0383610000 
 C        2.7053790000    -0.7547220000    -1.3421040000 
 N        4.1284440000    -0.9649990000    -1.6824990000 
 C        4.0209390000    -2.4362390000    -1.6051120000 
 C        2.5129580000    -2.2702220000    -1.4480270000 
 O        1.5841260000    -3.0121160000    -1.4221890000 
 H        0.8692030000     0.2147660000     1.0922880000 
 H        2.8116080000    -0.8782540000     0.8062660000 
 H        3.0468210000     0.7476620000     0.1307450000 
 H        2.1518410000    -0.1658930000    -2.0811860000 
 H        4.7734690000    -0.5599140000    -1.0167800000 
 H        4.4868460000    -2.9093080000    -0.7322160000 
 H        4.3435900000    -2.9650980000    -2.5063840000 
*
