! RI PBE def2-SVP def2-SVP/J NBO PAL2
% maxcore 2000
% output
    # printlevel mini
    print[ P_Basis ] 0
    print[ P_SCFInfo ] 1
    print[ P_SCFIterInfo ] 1
    print[ P_OrbEn ] 0
    print[ P_Cartesian ] 0
end
*xyz 0 1
 O        2.0820200000     1.0083460000    -0.3300510000 
 C        2.2354730000    -0.0740960000     0.1715930000 
 C        3.0604860000    -0.2834620000     1.3842540000 
 N        3.2077160000    -1.4455830000     1.8995020000 
 C        4.0743780000    -1.2574020000     3.0642450000 
 C        4.4117580000     0.2580570000     3.1417950000 
 N        3.6873120000     0.7528330000     1.9877750000 
 H        1.7767530000    -0.9965940000    -0.2263410000 
 H        4.9701090000    -1.8746100000     2.9513860000 
 H        3.5577700000    -1.6120300000     3.9604820000 
 H        5.4854320000     0.4519970000     3.0576850000 
 H        4.0562730000     0.7182450000     4.0688830000 
 H        3.6335190000     1.7011010000     1.6653120000 
*
