! RI PBE def2-SVP def2-SVP/J NBO PAL2
% maxcore 2000
% output
    # printlevel mini
    print[ P_Basis ] 0
    print[ P_SCFInfo ] 1
    print[ P_SCFIterInfo ] 1
    print[ P_OrbEn ] 0
    print[ P_Cartesian ] 0
end
*xyz 0 1
 O        1.2108410000     0.2049110000    -0.2211770000 
 C        2.5412270000    -0.1784340000     0.0762770000 
 C        3.0624890000     0.4936040000     1.3056710000 
 N        3.6959240000    -0.1087870000     2.2339680000 
 C        4.0792100000     0.9277850000     3.1933030000 
 C        3.2235690000     2.1563140000     2.8353370000 
 N        2.9016170000     1.8564550000     1.4457610000 
 H        0.6307870000    -0.2103080000     0.4226820000 
 H        3.1416730000     0.1290720000    -0.7841460000 
 H        2.6495160000    -1.2587300000     0.2021110000 
 H        5.1478150000     1.1431070000     3.0731580000 
 H        3.9292200000     0.5859460000     4.2187750000 
 H        3.7634780000     3.0993530000     2.9327610000 
 H        2.3174270000     2.2087060000     3.4533010000 
 H        2.0806070000     2.2631270000     1.0249080000 
*
