! RI PBE def2-SVP def2-SVP/J NBO PAL2
% maxcore 2000
% output
    # printlevel mini
    print[ P_Basis ] 0
    print[ P_SCFInfo ] 1
    print[ P_SCFIterInfo ] 1
    print[ P_OrbEn ] 0
    print[ P_Cartesian ] 0
end
*xyz 0 1
 O        2.5899180000    -1.0917430000    -0.1510170000 
 C        2.0811970000     0.0019570000    -0.0598530000 
 C        2.7773250000     1.2283190000    -0.4098580000 
 N        2.2922450000     2.4524910000    -0.3379360000 
 C        3.2910890000     3.2618890000    -0.7615130000 
 C        4.4016690000     2.5189120000    -1.0966080000 
 N        4.0556120000     1.2306100000    -0.8664610000 
 H        1.0464570000     0.1512580000     0.2972470000 
 H        3.1765990000     4.3338910000    -0.8093070000 
 H        5.3733480000     2.8022350000    -1.4669930000 
 H        4.6122310000     0.4013600000    -0.9966010000 
*
