! RI PBE def2-SVP def2-SVP/J NBO PAL2
% maxcore 2000
% output
    # printlevel mini
    print[ P_Basis ] 0
    print[ P_SCFInfo ] 1
    print[ P_SCFIterInfo ] 1
    print[ P_OrbEn ] 0
    print[ P_Cartesian ] 0
end
*xyz 0 1
 O        3.3013110000    -1.0348060000    -0.3131720000 
 C        2.2584370000    -0.1104660000    -0.0645440000 
 C        2.7022080000     1.0360260000     0.7771010000 
 N        2.3237210000     2.2842120000     0.6567340000 
 C        2.9553230000     2.9593090000     1.6652900000 
 C        3.7324540000     2.1077030000     2.3965540000 
 N        3.5560200000     0.8797770000     1.8188070000 
 H        3.9532310000    -0.6049800000    -0.8739990000 
 H        1.4796120000    -0.6832940000     0.4475730000 
 H        1.8204530000     0.2925680000    -0.9828650000 
 H        2.8236920000     4.0212260000     1.8042520000 
 H        4.3822830000     2.2609280000     3.2420250000 
 H        3.9996460000     0.0149980000     2.0765430000 
*
