! RI PBE def2-SVP def2-SVP/J NBO PAL2
% maxcore 2000
% output
    # printlevel mini
    print[ P_Basis ] 0
    print[ P_SCFInfo ] 1
    print[ P_SCFIterInfo ] 1
    print[ P_OrbEn ] 0
    print[ P_Cartesian ] 0
end
*xyz 0 1
 O        0.9698190000    -0.3644430000    -0.1034450000 
 C        2.3031640000     0.0988960000    -0.0644210000 
 C        2.8019000000     0.2708130000    -1.4495560000 
 N        3.2102260000     1.3576090000    -2.0118670000 
 C        3.5873920000     0.9716880000    -3.2815830000 
 C        3.3773540000    -0.3535240000    -3.4150910000 
 O        2.8779540000    -0.8164550000    -2.2423090000 
 H        0.7187690000    -0.6338660000     0.7830510000 
 H        2.9529360000    -0.6136170000     0.4620350000 
 H        2.3897790000     1.0749920000     0.4238530000 
 H        3.9757140000     1.6727440000    -4.0026290000 
 H        3.5103030000    -1.0701400000    -4.2071470000 
*
