! RI PBE def2-SVP def2-SVP/J NBO PAL2
% maxcore 2000
% output
    # printlevel mini
    print[ P_Basis ] 0
    print[ P_SCFInfo ] 1
    print[ P_SCFIterInfo ] 1
    print[ P_OrbEn ] 0
    print[ P_Cartesian ] 0
end
*xyz 0 1
 O        2.2388510000     1.0706380000     0.0625060000 
 C        2.3227430000    -0.1354270000     0.1571360000 
 C        2.8867120000    -0.9819430000    -0.8653140000 
 N        2.9426340000    -2.2639980000    -0.6924560000 
 N        3.4915420000    -2.8257430000    -1.7465180000 
 C        3.8791130000    -1.8930560000    -2.8000690000 
 C        3.4550790000    -0.5445250000    -2.1901260000 
 H        1.9650030000    -0.6803540000     1.0530570000 
 H        3.6018300000    -3.8221440000    -1.7609220000 
 H        3.3537590000    -2.1197860000    -3.7319570000 
 H        4.9537740000    -1.9507800000    -2.9937190000 
 H        2.7078600000    -0.0221960000    -2.7905560000 
 H        4.2918810000     0.1436040000    -2.0560400000 
*
