! RI PBE def2-SVP def2-SVP/J NBO PAL2
% maxcore 2000
% output
    # printlevel mini
    print[ P_Basis ] 0
    print[ P_SCFInfo ] 1
    print[ P_SCFIterInfo ] 1
    print[ P_OrbEn ] 0
    print[ P_Cartesian ] 0
end
*xyz 0 1
 O        2.8832560000    -1.2744130000     0.0126290000 
 C        2.5704010000     0.0959160000    -0.1510160000 
 C        2.7232930000     0.8535930000     1.1244630000 
 N        1.7392080000     1.4543140000     1.6831480000 
 N        2.1845590000     2.0525910000     2.8927720000 
 C        3.4265460000     1.7917660000     3.0399390000 
 C        3.9726000000     0.9809760000     1.9243900000 
 H        2.1946700000    -1.6720300000     0.5529560000 
 H        1.5532830000     0.2480390000    -0.5254410000 
 H        3.2702710000     0.4736770000    -0.9013930000 
 H        3.9737290000     2.1484300000     3.9049570000 
 H        4.3748130000     0.0129020000     2.2411260000 
 H        4.7756700000     1.4894480000     1.3788600000 
*
