! RI PBE def2-SVP def2-SVP/J NBO PAL2
% maxcore 2000
% output
    # printlevel mini
    print[ P_Basis ] 0
    print[ P_SCFInfo ] 1
    print[ P_SCFIterInfo ] 1
    print[ P_OrbEn ] 0
    print[ P_Cartesian ] 0
end
*xyz 0 1
 O        0.8884850000     0.1462490000    -0.1807420000 
 C        2.2791980000    -0.0963330000    -0.1928250000 
 C        2.8741310000     0.3620600000     1.1142190000 
 O        4.2508140000     0.0867150000     1.0202850000 
 C        2.5622910000     1.7848730000     1.6187820000 
 N        2.4636940000     1.2327500000     2.9828500000 
 C        2.2374590000    -0.1172640000     2.4337360000 
 H        0.5216690000    -0.1486360000    -1.0161910000 
 H        2.7781040000     0.4481250000    -1.0055550000 
 H        2.5028060000    -1.1645210000    -0.3146790000 
 H        4.6577110000     0.3704860000     1.8447590000 
 H        1.6169340000     2.1568840000     1.2093360000 
 H        3.3512180000     2.5287680000     1.4737330000 
 H        1.7132430000     1.6040100000     3.5502650000 
 H        1.1833930000    -0.3818280000     2.2970300000 
 H        2.7614370000    -0.9248600000     2.9534080000 
*
