! RI PBE def2-SVP def2-SVP/J NBO PAL2
% maxcore 2000
% output
    # printlevel mini
    print[ P_Basis ] 0
    print[ P_SCFInfo ] 1
    print[ P_SCFIterInfo ] 1
    print[ P_OrbEn ] 0
    print[ P_Cartesian ] 0
end
*xyz 0 1
 O        2.5397300000     3.0155870000    -0.7944100000 
 C        2.1758310000     1.8833520000    -0.6306980000 
 C        3.0835070000     0.6905150000    -0.5866630000 
 C        4.5532320000     1.0054400000    -0.7822360000 
 C        5.2478570000     1.6140190000     0.4514940000 
 C        5.8198750000     0.2099340000     0.7035960000 
 N        5.4539090000    -0.1574310000    -0.6741700000 
 H        1.0948240000     1.6536970000    -0.4990650000 
 H        2.7266910000    -0.0091830000    -1.3567280000 
 H        2.9046480000     0.1783810000     0.3697840000 
 H        4.6779140000     1.5642190000    -1.7138160000 
 H        4.6007240000     2.0402380000     1.2170020000 
 H        6.0098790000     2.3438650000     0.1824350000 
 H        5.2736500000    -0.3363640000     1.4831720000 
 H        6.8890500000     0.1366470000     0.9183200000 
 H        5.0214690000    -1.0650940000    -0.7939180000 
*
