! RI PBE def2-SVP def2-SVP/J NBO PAL2
% maxcore 2000
% output
    # printlevel mini
    print[ P_Basis ] 0
    print[ P_SCFInfo ] 1
    print[ P_SCFIterInfo ] 1
    print[ P_OrbEn ] 0
    print[ P_Cartesian ] 0
end
*xyz 0 1
 O        2.8009210000     2.0233010000    -1.8854060000 
 C        2.2299640000     1.0196850000    -1.5571070000 
 C        2.8967580000    -0.2019010000    -0.9982200000 
 C        4.3917970000    -0.0922730000    -0.8589720000 
 C        4.9873980000     0.8153420000     0.2313850000 
 N        6.0078720000    -0.2157740000     0.4801290000 
 C        5.1591270000    -1.2293900000    -0.1621620000 
 H        1.1242800000     0.9434700000    -1.6562680000 
 H        2.6134960000    -1.0434320000    -1.6468530000 
 H        2.4155720000    -0.4189720000    -0.0339690000 
 H        4.8434030000     0.1433980000    -1.8242280000 
 H        4.2812030000     0.9578080000     1.0628610000 
 H        5.3738430000     1.7888600000    -0.0751100000 
 H        6.2401700000    -0.3846280000     1.4500190000 
 H        4.5108770000    -1.7812330000     0.5349390000 
 H        5.6925180000    -1.9486490000    -0.7899400000 
*
