! RI PBE def2-SVP def2-SVP/J NBO PAL2
% maxcore 2000
% output
    # printlevel mini
    print[ P_Basis ] 0
    print[ P_SCFInfo ] 1
    print[ P_SCFIterInfo ] 1
    print[ P_OrbEn ] 0
    print[ P_Cartesian ] 0
end
*xyz 0 1
 O        2.6444590000    -1.2135510000    -1.7908360000 
 C        3.0865760000    -0.5177380000    -0.9029420000 
 C        3.1179340000     0.9256480000    -1.0052260000 
 C        3.1555560000     2.1249300000    -1.0664710000 
 C        3.6210050000    -1.0911140000     0.3591890000 
 C        2.7092570000    -2.0366810000     1.0683150000 
 N        3.8795750000    -2.5196330000     0.3771880000 
 H        3.1806340000     3.1877910000    -1.1374840000 
 H        4.2933420000    -0.4646380000     0.9342220000 
 H        1.7342000000    -2.1998080000     0.6204500000 
 H        2.7511070000    -2.0729990000     2.1510880000 
 H        3.6036470000    -2.8904280000    -0.5309130000 
*
