! RI PBE def2-SVP def2-SVP/J NBO PAL2
% maxcore 2000
% output
    # printlevel mini
    print[ P_Basis ] 0
    print[ P_SCFInfo ] 1
    print[ P_SCFIterInfo ] 1
    print[ P_OrbEn ] 0
    print[ P_Cartesian ] 0
end
*xyz 0 1
 O        1.5163600000     0.8547920000     0.2663740000 
 C        2.5589390000     0.4294300000    -0.1648200000 
 C        3.0767670000    -0.9116330000     0.0908080000 
 C        4.2568110000    -1.2888640000    -0.4104270000 
 C        4.9290790000    -2.5793600000    -0.2286300000 
 C        5.3990630000    -2.9784760000     1.1303360000 
 N        4.3134410000    -3.6869760000     0.4830910000 
 H        3.2105340000     1.0602390000    -0.8091700000 
 H        2.4503980000    -1.5599530000     0.6971420000 
 H        4.7967410000    -0.5699060000    -1.0258830000 
 H        5.5444440000    -2.8892820000    -1.0684450000 
 H        5.1708510000    -2.2977300000     1.9440740000 
 H        6.3275680000    -3.5308730000     1.2255770000 
 H        3.4191040000    -3.4108290000     0.8738630000 
*
