! RI PBE def2-SVP def2-SVP/J NBO PAL2
% maxcore 2000
% output
    # printlevel mini
    print[ P_Basis ] 0
    print[ P_SCFInfo ] 1
    print[ P_SCFIterInfo ] 1
    print[ P_OrbEn ] 0
    print[ P_Cartesian ] 0
end
*xyz 0 1
 O        0.8443770000    -0.3152030000    -0.2344550000 
 C        2.0360970000    -0.3031450000    -0.0518250000 
 C        2.8945060000    -1.4373270000    -0.2421260000 
 C        3.6506720000    -2.3686590000    -0.3872550000 
 C        4.5181970000    -3.4819490000    -0.5901630000 
 C        4.0589250000    -4.8305300000    -0.1505770000 
 N        4.1449270000    -4.5207860000    -1.5596740000 
 H        2.5589690000     0.6126830000     0.2845170000 
 H        5.5807510000    -3.2639300000    -0.5637320000 
 H        3.0844500000    -4.8907240000     0.3212730000 
 H        4.8050610000    -5.5253250000     0.2184650000 
 H        3.2248790000    -4.3167840000    -1.9370570000 
*
