! RI PBE def2-SVP def2-SVP/J NBO PAL2
% maxcore 2000
% output
    # printlevel mini
    print[ P_Basis ] 0
    print[ P_SCFInfo ] 1
    print[ P_SCFIterInfo ] 1
    print[ P_OrbEn ] 0
    print[ P_Cartesian ] 0
end
*xyz 0 1
 O        1.0745180000     0.2245970000    -0.9258100000 
 C        2.3828470000    -0.0513760000    -0.4496890000 
 C        2.8288860000    -1.4190630000    -0.8602560000 
 C        3.2115440000    -2.3616340000    -0.0103100000 
 C        3.3045540000     1.0140160000    -0.9973680000 
 C        3.1132580000     1.5572810000    -2.3534400000 
 N        2.8244730000     2.3739080000    -1.1733190000 
 H        0.4973190000    -0.4858720000    -0.6358020000 
 H        2.4013340000     0.0137580000     0.6489230000 
 H        2.8230280000    -1.6081430000    -1.9316800000 
 H        3.2212900000    -2.1837500000     1.0611040000 
 H        3.5363850000    -3.3386400000    -0.3488660000 
 H        4.3138840000     0.9420680000    -0.6016350000 
 H        2.2723610000     1.1836570000    -2.9272800000 
 H        3.9743260000     1.8724820000    -2.9324550000 
 H        1.8190930000     2.3817020000    -1.0261160000 
*
