! RI PBE def2-SVP def2-SVP/J NBO PAL2
% maxcore 2000
% output
    # printlevel mini
    print[ P_Basis ] 0
    print[ P_SCFInfo ] 1
    print[ P_SCFIterInfo ] 1
    print[ P_OrbEn ] 0
    print[ P_Cartesian ] 0
end
*xyz 0 1
 O        1.0575290000    -0.1818290000    -0.2162410000 
 C        2.4373790000     0.0673350000    -0.0268720000 
 C        2.9034680000     1.0467910000    -0.9909350000 
 C        3.3045570000     1.8567680000    -1.7856270000 
 C        3.7919350000     2.8257880000    -2.7213380000 
 C        2.8918880000     3.9191340000    -3.1682700000 
 N        4.0117220000     4.2135580000    -2.2921270000 
 H        0.7857470000    -0.8334130000     0.4354430000 
 H        3.0275690000    -0.8517590000    -0.1508510000 
 H        2.6351380000     0.4470410000     0.9857900000 
 H        4.5417550000     2.4645050000    -3.4182200000 
 H        1.8870800000     3.9250470000    -2.7605760000 
 H        2.9879340000     4.2928570000    -4.1817680000 
 H        3.6876010000     4.3183780000    -1.3362080000 
*
