! RI PBE def2-SVP def2-SVP/J NBO PAL2
% maxcore 2000
% output
    # printlevel mini
    print[ P_Basis ] 0
    print[ P_SCFInfo ] 1
    print[ P_SCFIterInfo ] 1
    print[ P_OrbEn ] 0
    print[ P_Cartesian ] 0
end
*xyz 0 1
 O        0.9526000000     0.3654360000    -0.2503050000 
 C        2.1363510000     0.2150310000    -0.0953990000 
 C        2.7300020000    -0.8737460000     0.6892840000 
 C        4.0507080000    -0.9865510000     0.7989420000 
 C        4.7473020000    -2.0806690000     1.5479090000 
 C        5.7410200000    -1.5642840000     2.4803680000 
 N        6.5254860000    -1.1451730000     3.2076880000 
 H        2.8701640000     0.9137710000    -0.5519410000 
 H        2.0435370000    -1.5689740000     1.1637870000 
 H        4.6902100000    -0.2553340000     0.3087570000 
 H        5.2676480000    -2.7387640000     0.8410550000 
 H        4.0305720000    -2.6975420000     2.0952560000 
*
