! RI PBE def2-SVP def2-SVP/J NBO PAL2
% maxcore 2000
% output
    # printlevel mini
    print[ P_Basis ] 0
    print[ P_SCFInfo ] 1
    print[ P_SCFIterInfo ] 1
    print[ P_OrbEn ] 0
    print[ P_Cartesian ] 0
end
*xyz 0 1
 O        0.9812660000    -0.2340250000    -0.0077160000 
 C        2.1773830000    -0.1163180000    -0.0190030000 
 C        2.8723230000     0.9838420000    -0.6440100000 
 C        3.4950780000     1.8795280000    -1.1508540000 
 C        4.2488150000     2.9606380000    -1.7623690000 
 C        3.4099740000     3.9669080000    -2.4074510000 
 N        2.7729790000     4.7715670000    -2.9216470000 
 H        2.8402950000    -0.8612040000     0.4602500000 
 H        4.9405290000     2.5531380000    -2.5082320000 
 H        4.8664590000     3.4554260000    -1.0043890000 
*
