! RI PBE def2-SVP def2-SVP/J NBO PAL2
% maxcore 2000
% output
    # printlevel mini
    print[ P_Basis ] 0
    print[ P_SCFInfo ] 1
    print[ P_SCFIterInfo ] 1
    print[ P_OrbEn ] 0
    print[ P_Cartesian ] 0
end
*xyz 0 1
 O        2.2576430000    -0.8933060000    -0.6172390000 
 C        1.9693970000    -0.0076910000     0.1354410000 
 C        2.9667380000     0.8321690000     0.8940640000 
 C        4.3841380000     0.5427380000     0.5599160000 
 C        5.2913770000     1.4865400000     0.3134870000 
 C        6.6487680000     1.1882900000     0.0143060000 
 N        7.7552250000     0.9746620000    -0.2256970000 
 H        0.9079010000     0.2476310000     0.3398180000 
 H        2.7752660000     0.6290420000     1.9594320000 
 H        2.7150430000     1.8888100000     0.7519220000 
 H        4.6732900000    -0.5022840000     0.5151130000 
 H        5.0306920000     2.5406990000     0.3326370000 
*
