! RI PBE def2-SVP def2-SVP/J NBO PAL2
% maxcore 2000
% output
    # printlevel mini
    print[ P_Basis ] 0
    print[ P_SCFInfo ] 1
    print[ P_SCFIterInfo ] 1
    print[ P_OrbEn ] 0
    print[ P_Cartesian ] 0
end
*xyz 0 1
 O        1.2323810000    -0.2888910000    -0.5010160000 
 C        2.2700320000     0.0139970000     0.0047570000 
 C        3.0883710000    -0.9619180000     0.8446650000 
 C        4.5117030000    -0.7727700000     0.6991330000 
 C        5.6917740000    -0.5847520000     0.5440900000 
 C        7.0338140000    -0.3821150000     0.3792840000 
 N        8.1672680000    -0.2090840000     0.2401050000 
 H        2.6948770000     1.0335870000    -0.0851600000 
 H        2.7888830000    -1.9811760000     0.5874160000 
 H        2.8023960000    -0.7930770000     1.8921260000 
*
