! RI PBE def2-SVP def2-SVP/J NBO PAL2
% maxcore 2000
% output
    # printlevel mini
    print[ P_Basis ] 0
    print[ P_SCFInfo ] 1
    print[ P_SCFIterInfo ] 1
    print[ P_OrbEn ] 0
    print[ P_Cartesian ] 0
end
*xyz 0 1
 O        0.9735180000    -0.0134500000     0.0666660000 
 C        2.3718210000     0.1300010000     0.0895710000 
 C        2.8374770000     0.9117890000     1.3311460000 
 C        4.2664780000     1.1573970000     1.3422180000 
 C        5.4495220000     1.3524050000     1.3186840000 
 C        2.9542820000    -1.2150640000     0.0711290000 
 N        3.4249600000    -2.2623070000     0.0630340000 
 H        0.5881560000     0.8157250000    -0.2289890000 
 H        2.7393680000     0.6447730000    -0.8077620000 
 H        2.5305610000     0.3605290000     2.2241650000 
 H        2.2972780000     1.8643650000     1.3379120000 
 H        6.5012780000     1.5169280000     1.3086260000 
*
