! RI PBE def2-SVP def2-SVP/J NBO PAL2
% maxcore 2000
% output
    # printlevel mini
    print[ P_Basis ] 0
    print[ P_SCFInfo ] 1
    print[ P_SCFIterInfo ] 1
    print[ P_OrbEn ] 0
    print[ P_Cartesian ] 0
end
*xyz 0 1
 O        2.2464730000     0.6205330000     1.4875920000 
 C        2.6281400000     0.3722210000     0.1480730000 
 C        2.9000900000    -1.0833760000    -0.0001770000 
 C        4.0193260000    -1.5839710000    -0.5002830000 
 C        4.2758930000    -3.0544780000    -0.6603750000 
 C        4.5727420000    -3.4197190000    -2.0403470000 
 N        4.8118530000    -3.6941040000    -3.1306500000 
 H        1.9010280000     1.5142840000     1.5455220000 
 H        3.5190640000     0.9497370000    -0.1318240000 
 H        1.8185350000     0.6530620000    -0.5419600000 
 H        2.1007610000    -1.7455770000     0.3267880000 
 H        4.8194230000    -0.9206490000    -0.8192410000 
 H        3.4129350000    -3.6347790000    -0.3238170000 
 H        5.1310650000    -3.3619020000    -0.0473910000 
*
