! RI PBE def2-SVP def2-SVP/J NBO PAL2
% maxcore 2000
% output
    # printlevel mini
    print[ P_Basis ] 0
    print[ P_SCFInfo ] 1
    print[ P_SCFIterInfo ] 1
    print[ P_OrbEn ] 0
    print[ P_Cartesian ] 0
end
*xyz 0 1
 O        3.1968010000     1.1118530000    -1.1794050000 
 C        2.4866410000     0.4834540000    -0.1285990000 
 C        2.9418390000    -0.9381640000    -0.0165890000 
 C        2.0874740000    -1.9505080000     0.0195760000 
 C        4.4381130000    -1.0967500000     0.0749130000 
 C        4.8864090000    -2.4679900000     0.2332440000 
 N        5.2357590000    -3.5554450000     0.3613390000 
 H        3.0317410000     2.0564420000    -1.1419910000 
 H        1.4049150000     0.5044680000    -0.3043750000 
 H        2.6836810000     0.9965330000     0.8256080000 
 H        1.0213330000    -1.7779830000    -0.0726790000 
 H        2.4190050000    -2.9748800000     0.1452100000 
 H        4.8250510000    -0.5071790000     0.9148990000 
 H        4.8989270000    -0.6730510000    -0.8229500000 
*
