! RI PBE def2-SVP def2-SVP/J NBO PAL2
% maxcore 2000
% output
    # printlevel mini
    print[ P_Basis ] 0
    print[ P_SCFInfo ] 1
    print[ P_SCFIterInfo ] 1
    print[ P_OrbEn ] 0
    print[ P_Cartesian ] 0
end
*xyz 0 1
 O        2.4649270000    -0.3556320000     1.2729250000 
 C        2.1649470000     0.0557170000    -0.0256980000 
 C        2.8068230000    -0.8719000000    -1.0889930000 
 C        2.4110370000    -0.4909050000    -2.4373180000 
 C        2.0488870000    -0.1495750000    -3.5271880000 
 C        4.2599540000    -0.8570170000    -0.9193180000 
 N        5.3895480000    -0.8159030000    -0.7114190000 
 H        3.3916520000    -0.1721430000     1.4572910000 
 H        2.4753990000     1.0871770000    -0.2259420000 
 H        1.0826590000    -0.0063230000    -0.1451540000 
 H        2.4667090000    -1.8932810000    -0.8800720000 
 H        1.7359090000     0.1455240000    -4.5013050000 
*
