! RI PBE def2-SVP def2-SVP/J NBO PAL2
% maxcore 2000
% output
    # printlevel mini
    print[ P_Basis ] 0
    print[ P_SCFInfo ] 1
    print[ P_SCFIterInfo ] 1
    print[ P_OrbEn ] 0
    print[ P_Cartesian ] 0
end
*xyz 0 1
 O        2.4608980000     0.5371540000    -1.2139260000 
 C        2.0426280000    -0.2389010000    -0.1128560000 
 C        3.0522730000    -0.0545520000     1.0036520000 
 C        4.4123240000    -0.6016570000     0.6728050000 
 C        5.5216200000     0.1303590000     0.5953780000 
 C        4.4778620000    -2.0104770000     0.4243980000 
 N        4.4834240000    -3.1466570000     0.2322440000 
 H        1.9231800000     0.3113430000    -1.9757770000 
 H        1.9738250000    -1.3027090000    -0.3762980000 
 H        1.0562890000     0.0825620000     0.2473290000 
 H        2.6680870000    -0.5549090000     1.8988180000 
 H        3.1472540000     1.0096860000     1.2314180000 
 H        5.4863120000     1.1989560000     0.7704110000 
 H        6.4790240000    -0.3133970000     0.3538040000 
*
