! RI PBE def2-SVP def2-SVP/J NBO PAL2
% maxcore 2000
% output
    # printlevel mini
    print[ P_Basis ] 0
    print[ P_SCFInfo ] 1
    print[ P_SCFIterInfo ] 1
    print[ P_OrbEn ] 0
    print[ P_Cartesian ] 0
end
*xyz 0 1
 O        1.0186030000     0.1373760000     0.0089580000 
 C        2.4213590000     0.0584180000    -0.0707330000 
 C        2.9671760000     1.0656220000     0.9334320000 
 C        4.4113770000     1.0937030000     0.9603660000 
 C        5.6169610000     1.1008990000     0.9667280000 
 C        6.9837280000     1.1143980000     0.9791330000 
 N        8.1390240000     1.1238880000     0.9887640000 
 H        0.6360950000    -0.4861410000    -0.6125370000 
 H        2.7867050000     0.3096170000    -1.0743670000 
 H        2.7875500000    -0.9443000000     0.1828740000 
 H        2.5855810000     0.8185200000     1.9296050000 
 H        2.5846120000     2.0608410000     0.6840070000 
*
