! RI PBE def2-SVP def2-SVP/J NBO PAL2
% maxcore 2000
% output
    # printlevel mini
    print[ P_Basis ] 0
    print[ P_SCFInfo ] 1
    print[ P_SCFIterInfo ] 1
    print[ P_OrbEn ] 0
    print[ P_Cartesian ] 0
end
*xyz 0 1
 O        2.6502890000    -1.2324300000     0.6432090000 
 C        2.2952590000     0.0389620000     0.1322310000 
 C        2.8847330000     0.1779290000    -1.2523030000 
 C        4.4030160000     0.1216390000    -1.2534780000 
 C        5.0079590000     0.2220420000    -2.6547660000 
 C        4.7009120000     1.4841010000    -3.3120560000 
 N        4.4482590000     2.4886150000    -3.8115620000 
 H        2.2954880000    -1.3191390000     1.5303360000 
 H        2.6788610000     0.8406470000     0.7800920000 
 H        1.2041160000     0.1475320000     0.0780350000 
 H        2.5439390000     1.1253650000    -1.6825850000 
 H        2.4833300000    -0.6228050000    -1.8836900000 
 H        4.7332760000    -0.8186950000    -0.8073840000 
 H        4.8045180000     0.9283760000    -0.6318680000 
 H        4.6366220000    -0.5888640000    -3.2894810000 
 H        6.0959240000     0.1199150000    -2.6126420000 
*
