! RI PBE def2-SVP def2-SVP/J NBO PAL2
% maxcore 2000
% output
    # printlevel mini
    print[ P_Basis ] 0
    print[ P_SCFInfo ] 1
    print[ P_SCFIterInfo ] 1
    print[ P_OrbEn ] 0
    print[ P_Cartesian ] 0
end
*xyz 0 1
 O        1.0943250000     0.1180670000    -0.4641710000 
 C        2.4847380000     0.0594660000    -0.2822220000 
 C        2.9422570000     1.1429500000     0.6481970000 
 C        2.1014430000     1.9984940000     1.2234450000 
 C        4.3927750000     1.1755740000     0.8442230000 
 N        4.9256440000     1.7859470000     1.8220340000 
 O        6.3016710000     1.7059310000     1.7809910000 
 H        0.8299710000    -0.6128550000    -1.0260230000 
 H        3.0175340000     0.1756480000    -1.2399360000 
 H        2.7916580000    -0.9134950000     0.1332990000 
 H        1.0368600000     1.9217430000     1.0488020000 
 H        2.4721920000     2.7818110000     1.8722250000 
 H        5.0298480000     0.6504850000     0.1273860000 
 H        6.5715830000     2.1763250000     2.5747600000 
*
