! RI PBE def2-SVP def2-SVP/J NBO PAL2
% maxcore 2000
% output
    # printlevel mini
    print[ P_Basis ] 0
    print[ P_SCFInfo ] 1
    print[ P_SCFIterInfo ] 1
    print[ P_OrbEn ] 0
    print[ P_Cartesian ] 0
end
*xyz 0 1
 O        2.9479030000    -0.4719900000    -1.0091930000 
 C        2.1309660000     0.2365030000    -0.1264090000 
 C        2.9005100000     1.0079990000     0.9124050000 
 C        2.2113490000     1.8058530000     1.9174580000 
 C        0.8873850000     1.9166310000     2.0000340000 
 N        4.1686270000     0.8920400000     0.8207590000 
 O        4.8786610000     1.5941650000     1.7665550000 
 H        3.8590360000    -0.2943160000    -0.7360580000 
 H        1.4509090000    -0.4554240000     0.3900340000 
 H        1.5010580000     0.9426110000    -0.6854550000 
 H        2.8453060000     2.3272510000     2.6244440000 
 H        0.2161470000     1.4125350000     1.3137960000 
 H        0.4273070000     2.5249970000     2.7692560000 
 H        5.7920560000     1.3922560000     1.5464940000 
*
