! RI PBE def2-SVP def2-SVP/J NBO PAL2
% maxcore 2000
% output
    # printlevel mini
    print[ P_Basis ] 0
    print[ P_SCFInfo ] 1
    print[ P_SCFIterInfo ] 1
    print[ P_OrbEn ] 0
    print[ P_Cartesian ] 0
end
*xyz 0 1
 O        0.8474130000     0.0452530000     0.1029100000 
 C        2.2574280000     0.0146130000     0.1987440000 
 C        2.8201170000     0.0163170000    -1.2039900000 
 C        4.3456790000    -0.0421040000    -1.2330290000 
 C        4.9885580000     1.1752650000    -0.6659860000 
 N        5.7974040000     1.0829980000     0.3029000000 
 O        6.2925510000     2.3210800000     0.6808170000 
 H        0.4807150000     0.0770120000     0.9889990000 
 H        2.5976110000    -0.8862600000     0.7302730000 
 H        2.6339520000     0.8836520000     0.7555060000 
 H        2.4648770000     0.9120330000    -1.7244110000 
 H        2.4122910000    -0.8419950000    -1.7451870000 
 H        4.6699750000    -0.1512850000    -2.2742800000 
 H        4.7130630000    -0.9163790000    -0.6889650000 
 H        4.7551380000     2.1535060000    -1.0955280000 
 H        6.8855170000     2.1044160000     1.4053260000 
*
