! RI PBE def2-SVP def2-SVP/J NBO PAL2
% maxcore 2000
% output
    # printlevel mini
    print[ P_Basis ] 0
    print[ P_SCFInfo ] 1
    print[ P_SCFIterInfo ] 1
    print[ P_OrbEn ] 0
    print[ P_Cartesian ] 0
end
*xyz 0 1
 O        2.3559620000    -0.7846550000    -0.6350090000 
 C        2.0108870000     0.2262060000    -0.0853170000 
 C        2.9371110000     1.2122120000     0.5530220000 
 C        4.4020890000     0.8464750000     0.4554550000 
 N        5.2093980000     1.8204730000     1.1606410000 
 C        6.6011630000     1.8822590000     0.7727930000 
 C        5.6604050000     2.9530940000     0.3765250000 
 H        0.9321800000     0.4895150000    -0.0196530000 
 H        2.6367580000     1.3239930000     1.6028210000 
 H        2.7379740000     2.1925920000     0.0992970000 
 H        4.6926130000     0.7534470000    -0.6035440000 
 H        4.5652800000    -0.1335860000     0.9113450000 
 H        6.9380400000     1.2062850000    -0.0096970000 
 H        7.3104160000     2.0444430000     1.5769560000 
 H        5.3702610000     2.9896030000    -0.6716500000 
 H        5.6716630000     3.9110540000     0.8846150000 
*
