! RI PBE def2-SVP def2-SVP/J NBO PAL2
% maxcore 2000
% output
    # printlevel mini
    print[ P_Basis ] 0
    print[ P_SCFInfo ] 1
    print[ P_SCFIterInfo ] 1
    print[ P_OrbEn ] 0
    print[ P_Cartesian ] 0
end
*xyz 0 1
 O        1.2866160000    -0.7216210000     0.8091110000 
 C        2.4227730000    -0.5262180000     0.4536200000 
 C        2.8187180000     0.4237710000    -0.5786170000 
 C        4.1057970000     0.5570010000    -0.9026420000 
 N        4.5564270000     1.4446610000    -1.8855170000 
 C        5.9308430000     1.9183510000    -1.7053570000 
 C        5.6327110000     0.9183520000    -2.7364320000 
 H        3.2657830000    -1.0859170000     0.9171550000 
 H        2.0498600000     1.0107680000    -1.0681100000 
 H        4.8566480000    -0.0515060000    -0.3833980000 
 H        6.4618250000     1.5864460000    -0.8175820000 
 H        6.0820660000     2.9571940000    -1.9733940000 
 H        5.9558160000    -0.1030260000    -2.5575800000 
 H        5.5548260000     1.2040630000    -3.7785580000 
*
