! RI PBE def2-SVP def2-SVP/J NBO PAL2
% maxcore 2000
% output
    # printlevel mini
    print[ P_Basis ] 0
    print[ P_SCFInfo ] 1
    print[ P_SCFIterInfo ] 1
    print[ P_OrbEn ] 0
    print[ P_Cartesian ] 0
end
*xyz 0 1
 O        1.0689370000     0.4165880000    -0.8289580000 
 C        2.1275240000     0.2175460000    -0.2957330000 
 C        2.7910910000     1.3065980000     0.5479760000 
 C        3.4605670000     0.8235640000     1.7409020000 
 N        3.9814440000     0.4412530000     2.6908330000 
 C        2.8639380000    -1.0135970000    -0.4488470000 
 C        3.4982000000    -2.0271020000    -0.5604480000 
 H        2.0239190000     2.0377950000     0.8089340000 
 H        3.5281150000     1.8074280000    -0.0909430000 
 H        4.0520630000    -2.9322620000    -0.6614170000 
*
