! RI PBE def2-SVP def2-SVP/J NBO PAL2
% maxcore 2000
% output
    # printlevel mini
    print[ P_Basis ] 0
    print[ P_SCFInfo ] 1
    print[ P_SCFIterInfo ] 1
    print[ P_OrbEn ] 0
    print[ P_Cartesian ] 0
end
*xyz 0 1
 O        2.6792010000     0.7953310000    -0.9241600000 
 C        2.3541730000    -0.0336990000     0.1766690000 
 C        3.0318400000     0.5236540000     1.4059200000 
 C        4.5529860000     0.5124590000     1.2905960000 
 N        5.2294400000     1.0303270000     2.4518650000 
 C        5.4091960000     0.3290260000     3.6047790000 
 N        5.1201180000    -0.8808880000     3.8719860000 
 H        2.2696520000     0.4362560000    -1.7139400000 
 H        2.6929770000    -1.0654540000     0.0001220000 
 H        1.2685040000    -0.0641120000     0.3366260000 
 H        2.7216570000    -0.0581880000     2.2788170000 
 H        2.6892060000     1.5506350000     1.5672220000 
 H        4.8574530000     1.1003110000     0.4237100000 
 H        4.9038690000    -0.5101830000     1.1065560000 
 H        5.4627890000     2.0065550000     2.4668250000 
 H        5.8910010000     0.9245790000     4.3838130000 
 H        4.6755390000    -1.3499110000     3.0842960000 
*
