! RI PBE def2-SVP def2-SVP/J NBO PAL2
% maxcore 2000
% output
    # printlevel mini
    print[ P_Basis ] 0
    print[ P_SCFInfo ] 1
    print[ P_SCFIterInfo ] 1
    print[ P_OrbEn ] 0
    print[ P_Cartesian ] 0
end
*xyz 0 1
 O        3.7320020000    -0.3927140000    -1.0098930000 
 C        2.5494710000    -0.0928650000    -0.3047070000 
 C        2.8805420000     0.3863290000     1.0654390000 
 C        4.1232470000     0.5013540000     1.5198820000 
 N        4.4668520000     0.9431580000     2.7873920000 
 C        5.7415340000     1.0583390000     3.2457720000 
 O        6.0356700000     1.4435580000     4.3503540000 
 H        3.4951130000    -0.6966650000    -1.8881120000 
 H        1.9006390000    -0.9799310000    -0.2310220000 
 H        1.9659340000     0.6811840000    -0.8277900000 
 H        2.0336630000     0.6453320000     1.6954920000 
 H        4.9652150000     0.2419940000     0.8884400000 
 H        3.7401540000     1.2050120000     3.4382140000 
 H        6.4891550000     0.7575050000     2.4887210000 
*
