! RI PBE def2-SVP def2-SVP/J NBO PAL2
% maxcore 2000
% output
    # printlevel mini
    print[ P_Basis ] 0
    print[ P_SCFInfo ] 1
    print[ P_SCFIterInfo ] 1
    print[ P_OrbEn ] 0
    print[ P_Cartesian ] 0
end
*xyz 0 1
 O        1.6497130000     3.4644330000     2.2989240000 
 C        2.7928730000     3.1509330000     1.5263860000 
 C        3.0334900000     1.6626260000     1.6368720000 
 C        4.2459170000     1.1882910000     0.8581940000 
 N        5.4691760000     1.7272370000     1.4152660000 
 N        6.5562410000     1.6235310000     0.6331930000 
 C        7.7084980000     1.6157470000     1.1668740000 
 H        1.5134010000     4.4137490000     2.2712450000 
 H        3.6747700000     3.6982310000     1.8807150000 
 H        2.6392760000     3.4182490000     0.4706270000 
 H        2.1488200000     1.1322410000     1.2733140000 
 H        3.1348460000     1.3986900000     2.6960870000 
 H        4.1992240000     1.5268570000    -0.1797350000 
 H        4.2617000000     0.0889700000     0.8340290000 
 H        5.6180770000     1.4916900000     2.3946300000 
 H        8.5714450000     1.5890660000     0.5129930000 
 H        7.8669330000     1.6484600000     2.2500970000 
*
