! RI PBE def2-SVP def2-SVP/J NBO PAL2
% maxcore 2000
% output
    # printlevel mini
    print[ P_Basis ] 0
    print[ P_SCFInfo ] 1
    print[ P_SCFIterInfo ] 1
    print[ P_OrbEn ] 0
    print[ P_Cartesian ] 0
end
*xyz 0 1
 O        1.3228430000    -0.3526830000    -0.6660090000 
 C        2.2986050000     0.3431130000    -0.7073900000 
 C        3.1511640000     0.6861060000     0.4885330000 
 N        4.5274550000     0.8525400000     0.1269900000 
 C        5.4676330000     1.3766540000     1.1238050000 
 C        6.5403860000     0.4375860000     0.5527160000 
 C        5.3660630000    -0.3403360000    -0.0569350000 
 H        2.6421930000     0.8097350000    -1.6560760000 
 H        2.9753360000    -0.0625470000     1.2797530000 
 H        2.7710420000     1.6482940000     0.8599490000 
 H        5.1930920000     1.1002570000     2.1534110000 
 H        5.6373670000     2.4555190000     1.0774490000 
 H        7.1776470000    -0.0877770000     1.2611230000 
 H        7.1530150000     0.9232660000    -0.2060820000 
 H        5.0505260000    -1.1777380000     0.5847450000 
 H        5.4534530000    -0.6959700000    -1.0865820000 
*
