! RI PBE def2-SVP def2-SVP/J NBO PAL2
% maxcore 2000
% output
    # printlevel mini
    print[ P_Basis ] 0
    print[ P_SCFInfo ] 1
    print[ P_SCFIterInfo ] 1
    print[ P_OrbEn ] 0
    print[ P_Cartesian ] 0
end
*xyz 0 1
 O        2.8276190000    -0.4330130000    -0.1960270000 
 C        1.9005100000     0.5722160000    -0.5701270000 
 C        2.6469240000     1.6207960000    -1.3537660000 
 N        3.6402590000     2.2659210000    -0.5217780000 
 C        4.4453710000     3.2164410000    -1.2170460000 
 C        3.9506780000     4.6280910000    -1.2846940000 
 C        5.1191620000     4.2776620000    -0.4108950000 
 H        2.4105640000    -1.0190560000     0.4382970000 
 H        1.4519500000     1.0380420000     0.3164690000 
 H        1.0975330000     0.1531470000    -1.1909910000 
 H        1.9338800000     2.3744760000    -1.7037560000 
 H        3.0827010000     1.1467330000    -2.2505550000 
 H        4.2201180000     1.5534950000    -0.0939480000 
 H        4.9872240000     2.8617810000    -2.0978760000 
 H        3.0104990000     4.8340780000    -0.7886830000 
 H        4.1322590000     5.1964450000    -2.1882260000 
 H        4.9461940000     4.2539620000     0.6575300000 
 H        6.1071260000     4.6025820000    -0.7119080000 
*
