! RI PBE def2-SVP def2-SVP/J NBO PAL2
% maxcore 2000
% output
    # printlevel mini
    print[ P_Basis ] 0
    print[ P_SCFInfo ] 1
    print[ P_SCFIterInfo ] 1
    print[ P_OrbEn ] 0
    print[ P_Cartesian ] 0
end
*xyz 0 1
 O        1.9652510000     0.4749840000     1.0120110000 
 C        2.0531640000     0.2169460000    -0.1559160000 
 C        3.0162430000    -0.7865410000    -0.7352750000 
 N        3.4294620000    -0.4078160000    -2.0663080000 
 C        4.0751850000    -1.4494740000    -2.8027100000 
 C        3.2029050000    -2.3819970000    -3.5833490000 
 C        4.0433340000    -1.3623510000    -4.2929270000 
 H        1.4002150000     0.7055720000    -0.9116440000 
 H        2.4574530000    -1.7294690000    -0.8125510000 
 H        3.8294360000    -0.9568880000    -0.0147130000 
 H        4.0189430000     0.4151820000    -2.0355740000 
 H        4.9720400000    -1.8896810000    -2.3621610000 
 H        2.1368110000    -2.1970420000    -3.5415450000 
 H        3.4895960000    -3.4240560000    -3.6449670000 
 H        3.5293750000    -0.5091930000    -4.7171490000 
 H        4.9119060000    -1.6990650000    -4.8443320000 
*
