! RI PBE def2-SVP def2-SVP/J NBO PAL2
% maxcore 2000
% output
    # printlevel mini
    print[ P_Basis ] 0
    print[ P_SCFInfo ] 1
    print[ P_SCFIterInfo ] 1
    print[ P_OrbEn ] 0
    print[ P_Cartesian ] 0
end
*xyz 0 1
 O        3.5235720000    -0.7562720000     0.4470000000 
 C        2.3885900000    -0.0101350000     0.0701310000 
 C        1.6748420000     0.4960240000     1.2558440000 
 N        1.1143000000     0.8574430000     2.1922030000 
 C        2.8361030000     1.1009440000    -0.8405580000 
 C        2.0441410000     2.3629280000    -0.9851560000 
 C        3.3726930000     2.3844890000    -0.2953160000 
 H        3.2429960000    -1.5093790000     0.9756060000 
 H        1.6719800000    -0.6431900000    -0.4740130000 
 H        3.3088740000     0.7105590000    -1.7346510000 
 H        1.1617960000     2.4852770000    -0.3681080000 
 H        1.9636910000     2.7899520000    -1.9763990000 
 H        3.3732280000     2.5139160000     0.7802920000 
 H        4.2168950000     2.8302340000    -0.8048850000 
*
