! RI PBE def2-SVP def2-SVP/J NBO PAL2
% maxcore 2000
% output
    # printlevel mini
    print[ P_Basis ] 0
    print[ P_SCFInfo ] 1
    print[ P_SCFIterInfo ] 1
    print[ P_OrbEn ] 0
    print[ P_Cartesian ] 0
end
*xyz 0 1
 O        0.5268700000    -0.9426860000    -0.1222730000 
 C        1.5868620000    -0.5988100000    -0.5805750000 
 C        1.8024290000     0.7937370000    -1.0001660000 
 N        1.9942140000     1.8786430000    -1.3299090000 
 C        2.7461840000    -1.4963200000    -0.7583160000 
 C        3.1629440000    -2.2471110000     0.4682400000 
 N        2.5090590000    -2.9211200000    -0.6221720000 
 H        3.4972690000    -1.1871100000    -1.4765560000 
 H        2.6029720000    -2.0495430000     1.3766110000 
 H        4.2186220000    -2.4593930000     0.5922270000 
 H        1.5246770000    -3.0608980000    -0.4021010000 
*
