! RI PBE def2-SVP def2-SVP/J NBO PAL2
% maxcore 2000
% output
    # printlevel mini
    print[ P_Basis ] 0
    print[ P_SCFInfo ] 1
    print[ P_SCFIterInfo ] 1
    print[ P_OrbEn ] 0
    print[ P_Cartesian ] 0
end
*xyz 0 1
 O        0.8659970000    -0.9698070000     0.2277210000 
 C        2.0150920000    -0.6885130000     0.0340220000 
 C        2.8996720000    -1.3915320000    -0.9644160000 
 N        4.2784820000    -1.3755740000    -0.5403190000 
 C        5.1985200000    -1.8124960000    -1.5774140000 
 C        6.5610290000    -1.9106030000    -1.0791720000 
 C        7.6802170000    -2.0129430000    -0.6599940000 
 H        2.5150510000     0.1400250000     0.5800440000 
 H        2.8198520000    -0.8087450000    -1.8934880000 
 H        2.4773990000    -2.3853150000    -1.1775020000 
 H        4.4070550000    -1.9495390000     0.2841680000 
 H        5.1664430000    -1.0823340000    -2.3946340000 
 H        4.9184180000    -2.7845300000    -2.0187700000 
 H        8.6752730000    -2.0953940000    -0.2910360000 
*
