! RI PBE def2-SVP def2-SVP/J NBO PAL2
% maxcore 2000
% output
    # printlevel mini
    print[ P_Basis ] 0
    print[ P_SCFInfo ] 1
    print[ P_SCFIterInfo ] 1
    print[ P_OrbEn ] 0
    print[ P_Cartesian ] 0
end
*xyz 0 1
 O        2.3672030000     1.1300740000    -0.1165970000 
 C        1.8880180000    -0.1232770000     0.3394720000 
 C        2.4085310000    -0.3348170000     1.7379750000 
 N        3.8507460000    -0.4184790000     1.7366010000 
 C        4.4208820000    -0.5109980000     3.0568090000 
 C        5.9105850000    -0.6198790000     3.0599030000 
 C        6.6789430000    -0.7606660000     1.9893240000 
 H        2.1918190000     1.2061570000    -1.0563640000 
 H        2.2471870000    -0.9363850000    -0.3038570000 
 H        0.7901330000    -0.1431000000     0.3506480000 
 H        1.9953710000    -1.2727330000     2.1259260000 
 H        2.0262670000     0.4771690000     2.3826800000 
 H        4.2199140000     0.3959780000     1.2585320000 
 H        4.0054800000    -1.4003690000     3.5516560000 
 H        4.1339360000     0.3381330000     3.7070250000 
 H        6.3697630000    -0.5706540000     4.0449190000 
 H        6.2530440000    -0.8291150000     0.9948920000 
 H        7.7567850000    -0.8270380000     2.0790660000 
*
