! RI PBE def2-SVP def2-SVP/J NBO PAL2
% maxcore 2000
% output
    # printlevel mini
    print[ P_Basis ] 0
    print[ P_SCFInfo ] 1
    print[ P_SCFIterInfo ] 1
    print[ P_OrbEn ] 0
    print[ P_Cartesian ] 0
end
*xyz 0 1
 O        2.5138420000    -0.4623630000     1.3719770000 
 C        1.8286050000     0.0473090000     0.2416630000 
 C        2.3757310000    -0.6471880000    -0.9787520000 
 N        3.7718830000    -0.3199290000    -1.1609440000 
 C        4.3794680000    -1.0571340000    -2.2510790000 
 C        5.8112150000    -0.8150470000    -2.3424700000 
 C        6.9954410000    -0.6333600000    -2.4072360000 
 H        2.3208510000     0.0928730000     2.1297620000 
 H        1.9885250000     1.1279700000     0.1411470000 
 H        0.7498280000    -0.1428610000     0.3173410000 
 H        1.8111320000    -0.3110620000    -1.8559430000 
 H        2.1993440000    -1.7332110000    -0.8768770000 
 H        4.2688280000    -0.5097630000    -0.2984500000 
 H        3.9069610000    -0.7438860000    -3.1901820000 
 H        4.2159160000    -2.1477860000    -2.1758300000 
 H        8.0445480000    -0.4654520000    -2.4675150000 
*
