! RI PBE def2-SVP def2-SVP/J NBO PAL2
% maxcore 2000
% output
    # printlevel mini
    print[ P_Basis ] 0
    print[ P_SCFInfo ] 1
    print[ P_SCFIterInfo ] 1
    print[ P_OrbEn ] 0
    print[ P_Cartesian ] 0
end
*xyz 0 1
 O        2.5709400000     0.1866700000    -1.3251780000 
 C        2.0583610000    -0.1455970000    -0.0480630000 
 C        2.6310180000     0.8388200000     0.9391850000 
 N        4.0710570000     0.7006180000     0.9969610000 
 C        4.6916720000     1.7127790000     1.8191930000 
 C        6.1439150000     1.5736860000     1.8308950000 
 N        7.2892390000     1.4829930000     1.8278720000 
 H        2.3776390000    -0.5266280000    -1.9366140000 
 H        2.3550040000    -1.1607860000     0.2427010000 
 H        0.9627300000    -0.0814010000    -0.0324520000 
 H        2.2098310000     0.6332690000     1.9294380000 
 H        2.3116030000     1.8557290000     0.6513910000 
 H        4.4397920000     0.7383530000     0.0534770000 
 H        4.3375100000     1.6061170000     2.8507070000 
 H        4.4584800000     2.7479560000     1.5136860000 
*
