! RI PBE def2-SVP def2-SVP/J NBO PAL2
% maxcore 2000
% output
    # printlevel mini
    print[ P_Basis ] 0
    print[ P_SCFInfo ] 1
    print[ P_SCFIterInfo ] 1
    print[ P_OrbEn ] 0
    print[ P_Cartesian ] 0
end
*xyz 0 1
 O        2.0629960000     1.5479270000     0.5382500000 
 C        1.1213610000     1.8534000000    -0.4752870000 
 C        1.7687890000     1.5633840000    -1.8052550000 
 N        2.9289120000     2.4091930000    -1.9975950000 
 C        3.7000850000     2.1239890000    -3.1946840000 
 C        3.0491360000     2.7892940000    -4.3965360000 
 O        2.8206250000     4.1507200000    -4.1376570000 
 H        1.7329770000     1.8715810000     1.3786320000 
 H        0.8339500000     2.9118560000    -0.4351110000 
 H        0.2161890000     1.2415400000    -0.3691630000 
 H        1.0361510000     1.7543100000    -2.5954400000 
 H        2.0239430000     0.4908720000    -1.8504920000 
 H        3.5089370000     2.3476460000    -1.1714990000 
 H        3.8201010000     1.0442000000    -3.3816100000 
 H        4.6968020000     2.5529020000    -3.0600060000 
 H        2.1086930000     2.2761680000    -4.6510600000 
 H        3.7054680000     2.7097070000    -5.2674890000 
 H        2.6159950000     4.1832300000    -3.1909970000 
*
