! RI PBE def2-SVP def2-SVP/J NBO PAL2
% maxcore 2000
% output
    # printlevel mini
    print[ P_Basis ] 0
    print[ P_SCFInfo ] 1
    print[ P_SCFIterInfo ] 1
    print[ P_OrbEn ] 0
    print[ P_Cartesian ] 0
end
*xyz 0 1
 O        2.8413940000     0.5211730000     0.8335120000 
 C        2.6433960000    -0.0869450000    -0.1727550000 
 C        1.2496190000    -0.2894730000    -0.6381080000 
 N        0.1741920000    -0.4545380000    -1.0115500000 
 N        3.6637010000    -0.6346170000    -0.9616400000 
 C        3.3653500000    -1.9022940000    -1.6547280000 
 C        3.4409540000    -0.6590400000    -2.4198110000 
 H        2.3822790000    -2.3401090000    -1.5095140000 
 H        4.1967460000    -2.5958180000    -1.6387440000 
 H        2.5095060000    -0.2476610000    -2.7971330000 
 H        4.3297650000    -0.4080770000    -2.9850380000 
*
