! RI PBE def2-SVP def2-SVP/J NBO PAL2
% maxcore 2000
% output
    # printlevel mini
    print[ P_Basis ] 0
    print[ P_SCFInfo ] 1
    print[ P_SCFIterInfo ] 1
    print[ P_OrbEn ] 0
    print[ P_Cartesian ] 0
end
*xyz 0 1
 O        4.2988720000     2.7744170000    -1.2948020000 
 C        4.9669180000     2.2187720000    -0.4632840000 
 C        4.5193150000     2.0280930000     0.9313360000 
 N        5.3099340000     1.4274970000     1.7206640000 
 N        4.7948840000     1.2955390000     3.0229040000 
 C        5.3069480000     0.0521850000     3.6283180000 
 C        5.9039400000     1.3361970000     3.9942770000 
 H        5.9713740000     1.8072480000    -0.6826070000 
 H        3.5403190000     2.4028400000     1.2341950000 
 H        5.8753130000    -0.5947810000     2.9708520000 
 H        4.5937520000    -0.4351080000     4.2813900000 
 H        6.8808590000     1.5679870000     3.5871450000 
 H        5.6442820000     1.8246040000     4.9252100000 
*
