! RI PBE def2-SVP def2-SVP/J NBO PAL2
% maxcore 2000
% output
    # printlevel mini
    print[ P_Basis ] 0
    print[ P_SCFInfo ] 1
    print[ P_SCFIterInfo ] 1
    print[ P_OrbEn ] 0
    print[ P_Cartesian ] 0
end
*xyz 0 1
 O        2.2242950000     0.3545000000    -1.3886130000 
 C        3.0201790000     0.0856880000    -0.2649420000 
 C        2.6562590000     0.9193910000     0.9439750000 
 N        1.6256340000     1.6444000000     1.0525070000 
 N        3.5475110000     0.7433320000     2.0011170000 
 C        4.7854430000     1.5032460000     2.0359180000 
 C        3.6837970000     1.7785300000     2.9912170000 
 H        2.4648330000     1.2167880000    -1.7376370000 
 H        4.0909860000     0.2049350000    -0.4767140000 
 H        2.8665500000    -0.9663710000    -0.0109420000 
 H        1.0662380000     1.5575950000     0.2042620000 
 H        4.9458960000     2.2353830000     1.2490530000 
 H        5.6678580000     0.9577640000     2.3519700000 
 H        3.0906650000     2.6732410000     2.8374510000 
 H        3.7643570000     1.4321870000     4.0152780000 
*
