! RI PBE def2-SVP def2-SVP/J NBO PAL2
% maxcore 2000
% output
    # printlevel mini
    print[ P_Basis ] 0
    print[ P_SCFInfo ] 1
    print[ P_SCFIterInfo ] 1
    print[ P_OrbEn ] 0
    print[ P_Cartesian ] 0
end
*xyz 0 1
 O        2.7566070000     1.3086670000    -0.2034110000 
 C        1.9724730000     0.1545710000     0.0031590000 
 C        2.6668510000    -0.9414020000     0.7914790000 
 N        2.0684360000    -1.8549450000     1.4460300000 
 N        4.0277340000    -0.8946250000     0.6912990000 
 C        4.8816220000    -1.8070160000     1.2775200000 
 C        6.2086610000    -1.7656510000     1.1896860000 
 H        2.8067200000     1.7978360000     0.6224270000 
 H        1.7419100000    -0.2348900000    -0.9924900000 
 H        1.0222790000     0.3878870000     0.4954640000 
 H        1.0630350000    -1.7152250000     1.4150020000 
 H        4.4064260000    -0.1253780000     0.1613810000 
 H        4.3578330000    -2.5792130000     1.8279070000 
 H        6.7298120000    -0.9926500000     0.6350710000 
 H        6.8061910000    -2.5219460000     1.6780460000 
*
