! RI PBE def2-SVP def2-SVP/J NBO PAL2
% maxcore 2000
% output
    # printlevel mini
    print[ P_Basis ] 0
    print[ P_SCFInfo ] 1
    print[ P_SCFIterInfo ] 1
    print[ P_OrbEn ] 0
    print[ P_Cartesian ] 0
end
*xyz 0 1
 O        2.0854580000     2.1629300000     0.1874590000 
 C        1.9192800000     1.1397830000    -0.4114210000 
 C        3.0610380000     0.3134060000    -0.9968530000 
 O        2.7827740000    -0.6800500000    -1.6289120000 
 C        4.4399780000     0.7751830000    -0.7578260000 
 C        5.3795890000    -0.2554300000    -0.2166790000 
 N        5.4906200000     0.1916870000    -1.5802550000 
 H        0.9207060000     0.6978220000    -0.6001660000 
 H        4.5622910000     1.8097790000    -0.4628690000 
 H        4.9666480000    -1.2399480000    -0.0206960000 
 H        6.1601840000     0.0788280000     0.4572680000 
 H        5.0574240000    -0.4949990000    -2.1954500000 
*
