! RI PBE def2-SVP def2-SVP/J NBO PAL2
% maxcore 2000
% output
    # printlevel mini
    print[ P_Basis ] 0
    print[ P_SCFInfo ] 1
    print[ P_SCFIterInfo ] 1
    print[ P_OrbEn ] 0
    print[ P_Cartesian ] 0
end
*xyz 0 1
 O        1.0686240000    -0.3836680000     0.0637020000 
 C        2.4252820000    -0.0779750000     0.0092330000 
 C        3.0928290000    -0.4297230000     1.3111780000 
 O        2.4749470000    -0.9100070000     2.2246960000 
 C        3.1286860000    -0.8110520000    -1.1232890000 
 C        2.7854270000    -2.2147710000    -1.4108300000 
 N        2.3760610000    -1.1421620000    -2.3156330000 
 H        0.9126060000    -0.7490720000     0.9489410000 
 H        2.5622350000     1.0050340000    -0.1499340000 
 H        4.1807110000    -0.2402190000     1.3819250000 
 H        4.1417450000    -0.4631940000    -1.3098630000 
 H        2.0202300000    -2.6750400000    -0.7942580000 
 H        3.5413670000    -2.8872070000    -1.8002160000 
 H        1.3950400000    -0.9340540000    -2.1480530000 
*
