! RI PBE def2-SVP def2-SVP/J NBO PAL2
% maxcore 2000
% output
    # printlevel mini
    print[ P_Basis ] 0
    print[ P_SCFInfo ] 1
    print[ P_SCFIterInfo ] 1
    print[ P_OrbEn ] 0
    print[ P_Cartesian ] 0
end
*xyz 0 1
 O        0.7525150000    -0.3283020000    -0.4747190000 
 C        1.9296630000    -0.1376480000    -1.1841180000 
 C        2.9794920000     0.5454550000    -0.3495960000 
 O        2.7501310000     0.8064110000     0.8130290000 
 C        4.2725340000     0.8738690000    -0.9894550000 
 C        4.7774250000     2.2605420000    -0.7713820000 
 N        5.4096290000     1.1411970000    -0.1197860000 
 H        0.9324400000    -0.0013600000     0.4202920000 
 H        2.3504000000    -1.0949900000    -1.5304620000 
 H        1.7574890000     0.4689230000    -2.0859720000 
 H        4.4980320000     0.3717060000    -1.9245980000 
 H        4.1475870000     2.9192100000    -0.1822540000 
 H        5.3494960000     2.7278070000    -1.5651220000 
 H        5.0794660000     1.0833790000     0.8419440000 
*
