! RI PBE def2-SVP def2-SVP/J NBO PAL2
% maxcore 2000
% output
    # printlevel mini
    print[ P_Basis ] 0
    print[ P_SCFInfo ] 1
    print[ P_SCFIterInfo ] 1
    print[ P_OrbEn ] 0
    print[ P_Cartesian ] 0
end
*xyz 0 1
 O        2.9032690000    -0.8088540000     0.7286640000 
 C        2.4474140000     0.0776440000    -0.2790020000 
 C        3.0163140000     1.4496800000     0.0449710000 
 O        2.7349250000     1.7704430000     1.3882270000 
 C        4.4935100000     1.5592860000    -0.2759390000 
 C        5.3270290000     2.5545460000     0.4177050000 
 N        5.5111040000     1.1252300000     0.6652520000 
 H        2.4263470000    -1.6380240000     0.6624160000 
 H        1.3518620000     0.1342770000    -0.2759600000 
 H        2.7813900000    -0.2415910000    -1.2737640000 
 H        2.4899620000     2.1799920000    -0.5820720000 
 H        2.7172240000     0.9314590000     1.8649740000 
 H        4.7249540000     1.3256430000    -1.3136230000 
 H        4.8426540000     3.1450300000     1.1879610000 
 H        6.1429230000     3.0392440000    -0.1072950000 
 H        5.0701180000     0.8785040000     1.5456050000 
*
