! RI PBE def2-SVP def2-SVP/J NBO PAL2
% maxcore 2000
% output
    # printlevel mini
    print[ P_Basis ] 0
    print[ P_SCFInfo ] 1
    print[ P_SCFIterInfo ] 1
    print[ P_OrbEn ] 0
    print[ P_Cartesian ] 0
end
*xyz 0 1
 O        1.3684290000    -0.0486490000    -0.5483580000 
 C        2.5404120000    -0.1517580000     0.1923370000 
 C        2.8536380000    -1.6008340000     0.4946490000 
 O        2.1399920000    -2.4847870000     0.0745500000 
 N        4.0207750000    -1.8320310000     1.1804740000 
 C        4.2982440000    -1.4167960000     2.5333940000 
 C        4.1722350000    -2.8573780000     2.1705820000 
 H        1.0888990000    -0.9631020000    -0.7122470000 
 H        2.4521100000     0.3985220000     1.1395580000 
 H        3.3961460000     0.2773300000    -0.3465180000 
 H        3.4857040000    -0.9740120000     3.1016970000 
 H        5.2770310000    -0.9832900000     2.7067320000 
 H        3.2721770000    -3.3819160000     2.4738290000 
 H        5.0644000000    -3.4672000000     2.0848310000 
*
