! RI PBE def2-SVP def2-SVP/J NBO PAL2
% maxcore 2000
% output
    # printlevel mini
    print[ P_Basis ] 0
    print[ P_SCFInfo ] 1
    print[ P_SCFIterInfo ] 1
    print[ P_OrbEn ] 0
    print[ P_Cartesian ] 0
end
*xyz 0 1
 O        2.2630910000     1.2740110000    -0.2646780000 
 C        1.7755200000    -0.0311490000    -0.0378710000 
 C        2.8105320000    -1.0104690000     0.4929580000 
 O        2.4873740000    -2.1092740000     0.8882410000 
 N        4.0893360000    -0.5484160000     0.4511990000 
 C        5.1824910000    -1.2946710000     0.8564870000 
 C        6.4422570000    -0.8758750000     0.8034330000 
 H        2.1369900000     1.7946640000     0.5317330000 
 H        1.4254880000    -0.4242410000    -0.9963640000 
 H        0.9245010000    -0.0510410000     0.6484850000 
 H        4.2164790000     0.3779420000     0.0705980000 
 H        4.9062210000    -2.2740750000     1.2285540000 
 H        6.7120190000     0.1047860000     0.4269260000 
 H        7.2411020000    -1.5214020000     1.1395020000 
*
