! RI PBE def2-SVP def2-SVP/J NBO PAL2
% maxcore 2000
% output
    # printlevel mini
    print[ P_Basis ] 0
    print[ P_SCFInfo ] 1
    print[ P_SCFIterInfo ] 1
    print[ P_OrbEn ] 0
    print[ P_Cartesian ] 0
end
*xyz 0 1
 O        1.9850120000    -0.9549100000    -0.5928790000 
 C        2.0892980000     0.1698250000    -0.1857480000 
 N        3.1927000000     0.9759570000    -0.3854880000 
 C        3.8955810000     1.0474150000    -1.6272610000 
 C        3.1307350000     2.2323130000    -1.1075960000 
 C        3.7899440000     3.3796280000    -0.5520220000 
 C        4.3333650000     4.3536150000    -0.1101830000 
 H        1.3288500000     0.6570380000     0.4503010000 
 H        3.4733650000     0.5073330000    -2.4688050000 
 H        4.9768700000     1.0639780000    -1.5599470000 
 H        2.1965970000     2.4455780000    -1.6224230000 
 H        4.8189730000     5.2134300000     0.2876700000 
*
