! RI PBE def2-SVP def2-SVP/J NBO PAL2
% maxcore 2000
% output
    # printlevel mini
    print[ P_Basis ] 0
    print[ P_SCFInfo ] 1
    print[ P_SCFIterInfo ] 1
    print[ P_OrbEn ] 0
    print[ P_Cartesian ] 0
end
*xyz 0 1
 O        1.7046630000    -0.9896920000     0.0730510000 
 C        2.2638010000     0.0261900000    -0.2271750000 
 N        3.4819660000     0.0758120000    -0.8905180000 
 C        3.8182810000    -0.7884980000    -1.9757600000 
 C        3.6341580000     0.6865640000    -2.1898000000 
 C        4.7635660000     1.5571540000    -2.3947630000 
 N        5.6595210000     2.2512610000    -2.5855310000 
 H        1.8994530000     1.0311120000     0.0480340000 
 H        3.0389940000    -1.4416710000    -2.3552900000 
 H        4.8246490000    -1.1902240000    -1.9706570000 
 H        2.7340380000     0.9939910000    -2.7153910000 
*
