! RI PBE def2-SVP def2-SVP/J NBO PAL2
% maxcore 2000
% output
    # printlevel mini
    print[ P_Basis ] 0
    print[ P_SCFInfo ] 1
    print[ P_SCFIterInfo ] 1
    print[ P_OrbEn ] 0
    print[ P_Cartesian ] 0
end
*xyz 0 1
 O        2.7461670000    -1.1104460000    -0.1695020000 
 C        2.4477550000    -0.0068400000     0.1880500000 
 N        2.9803150000     1.1615350000    -0.3054860000 
 C        2.7001310000     2.5585560000     0.0438080000 
 C        3.7450250000     2.9791170000    -1.0080010000 
 C        3.9442790000     1.4902200000    -1.2786160000 
 O        4.6172260000     0.8276090000    -1.9976760000 
 H        1.6903380000     0.1969580000     0.9706170000 
 H        2.9547070000     2.8078770000     1.0749810000 
 H        1.6754320000     2.8635430000    -0.1735910000 
 H        4.6338660000     3.4760480000    -0.6206400000 
 H        3.3595490000     3.5315020000    -1.8643330000 
*
