! RI PBE def2-SVP def2-SVP/J NBO PAL2
% maxcore 2000
% output
    # printlevel mini
    print[ P_Basis ] 0
    print[ P_SCFInfo ] 1
    print[ P_SCFIterInfo ] 1
    print[ P_OrbEn ] 0
    print[ P_Cartesian ] 0
end
*xyz 0 1
 O        1.9540910000    -1.1655740000    -0.3116030000 
 C        2.0040510000    -0.0999920000     0.2661780000 
 N        2.8732650000     0.1987520000     1.2462110000 
 C        2.9657460000     1.4822690000     1.9228610000 
 C        4.3772770000     1.4603520000     2.4940170000 
 C        4.5756920000    -0.0139450000     2.8384630000 
 C        3.8923280000    -0.7437460000     1.6858620000 
 H        1.3225780000     0.7399670000     0.0290350000 
 H        2.2249660000     1.5585990000     2.7290380000 
 H        2.7938580000     2.3066950000     1.2275870000 
 H        4.4939370000     2.1262930000     3.3498200000 
 H        5.0925990000     1.7670730000     1.7254990000 
 H        4.0721590000    -0.2462210000     3.7813260000 
 H        5.6239030000    -0.2946500000     2.9451320000 
 H        3.4396760000    -1.6934920000     1.9777090000 
 H        4.5829750000    -0.9543810000     0.8625420000 
*
