! RI PBE def2-SVP def2-SVP/J NBO PAL2
% maxcore 2000
% output
    # printlevel mini
    print[ P_Basis ] 0
    print[ P_SCFInfo ] 1
    print[ P_SCFIterInfo ] 1
    print[ P_OrbEn ] 0
    print[ P_Cartesian ] 0
end
*xyz 0 1
 O        1.0803340000     0.1448250000     0.6200120000 
 C        2.2366490000     0.2075280000     0.2615940000 
 N        2.9301720000     1.3496730000     0.1165970000 
 C        4.3179160000     1.4369850000    -0.3123650000 
 C        4.5549630000     2.9131960000    -0.2938160000 
 C        3.4714180000     3.5748760000     0.0870830000 
 C        2.3367180000     2.6502850000     0.3842960000 
 H        2.8366580000    -0.6906320000     0.0174890000 
 H        4.4652390000     1.0109100000    -1.3134780000 
 H        4.9926660000     0.9050810000     0.3712070000 
 H        5.5072360000     3.3495410000    -0.5645770000 
 H        3.3861290000     4.6493840000     0.1813410000 
 H        1.4614220000     2.8243770000    -0.2532350000 
 H        1.9858510000     2.7190730000     1.4211510000 
*
