! RI PBE def2-SVP def2-SVP/J NBO PAL2
% maxcore 2000
% output
    # printlevel mini
    print[ P_Basis ] 0
    print[ P_SCFInfo ] 1
    print[ P_SCFIterInfo ] 1
    print[ P_OrbEn ] 0
    print[ P_Cartesian ] 0
end
*xyz 0 1
 O        1.9371500000     0.9424440000    -0.6407580000 
 C        2.3678070000     0.0683150000     0.0775290000 
 N        2.8164990000     0.2519430000     1.3415410000 
 C        3.3409270000    -0.8019800000     2.2142790000 
 C        3.7043000000    -0.0656920000     3.5224540000 
 C        3.3366080000     1.3627080000     3.2340360000 
 C        2.8473260000     1.4780240000     2.0042320000 
 H        2.4393610000    -0.9884520000    -0.2408330000 
 H        4.2125260000    -1.2743410000     1.7559280000 
 H        2.5833490000    -1.5719580000     2.3756690000 
 H        4.7662060000    -0.1726730000     3.7632000000 
 H        3.1493090000    -0.4646990000     4.3767860000 
 H        3.4564660000     2.1753600000     3.9347750000 
 H        2.4888560000     2.3491110000     1.4768630000 
*
