! RI PBE def2-SVP def2-SVP/J NBO PAL2
% maxcore 2000
% output
    # printlevel mini
    print[ P_Basis ] 0
    print[ P_SCFInfo ] 1
    print[ P_SCFIterInfo ] 1
    print[ P_OrbEn ] 0
    print[ P_Cartesian ] 0
end
*xyz 0 1
 O        2.4775280000    -1.1080290000     0.1769070000 
 C        2.1997170000     0.0458040000     0.0878760000 
 N        2.8187860000     1.0796640000     0.7953140000 
 C        2.4957420000     2.4051490000     0.6895350000 
 C        3.3240660000     3.0754100000     1.5353960000 
 C        4.1246470000     2.0602900000     2.1180840000 
 N        3.8172780000     0.8660260000     1.6706750000 
 H        1.4101860000     0.4490470000    -0.5711700000 
 H        1.7136030000     2.7428790000     0.0279110000 
 H        3.3571500000     4.1372510000     1.7153550000 
 H        4.9133980000     2.1681080000     2.8486270000 
*
