! RI PBE def2-SVP def2-SVP/J NBO PAL2
% maxcore 2000
% output
    # printlevel mini
    print[ P_Basis ] 0
    print[ P_SCFInfo ] 1
    print[ P_SCFIterInfo ] 1
    print[ P_OrbEn ] 0
    print[ P_Cartesian ] 0
end
*xyz 0 1
 O        2.6012140000     1.1501540000     0.0844910000 
 C        2.2305410000     0.0262210000    -0.1290960000 
 N        2.9544630000    -0.9741000000    -0.7036700000 
 C        2.4597260000    -2.3355550000    -0.9456320000 
 C        3.6721940000    -3.0130520000    -1.5975520000 
 C        4.6646220000    -1.8872900000    -1.6112650000 
 N        4.2430150000    -0.7944220000    -1.1185640000 
 H        1.2158540000    -0.3367690000     0.1291240000 
 H        1.5895270000    -2.3177320000    -1.6048130000 
 H        2.1715610000    -2.8132420000    -0.0071090000 
 H        3.4636940000    -3.3750500000    -2.6075640000 
 H        4.0421600000    -3.8654730000    -1.0220730000 
 H        5.6738490000    -1.9474900000    -1.9984670000 
*
