! RI PBE def2-SVP def2-SVP/J NBO PAL2
% maxcore 2000
% output
    # printlevel mini
    print[ P_Basis ] 0
    print[ P_SCFInfo ] 1
    print[ P_SCFIterInfo ] 1
    print[ P_OrbEn ] 0
    print[ P_Cartesian ] 0
end
*xyz 0 1
 O        1.6632940000    -1.3698600000     0.5930080000 
 C        2.0033680000    -0.2394110000     0.8179730000 
 N        3.2894820000     0.2144240000     0.9285820000 
 C        3.6713190000     1.3394320000     1.7603000000 
 C        4.4704090000     0.6848980000     2.9034270000 
 C        4.5973970000    -0.7663450000     2.4289090000 
 O        4.2929370000    -0.7313070000     1.0331980000 
 H        1.2975260000     0.6112620000     0.8965290000 
 H        2.7814450000     1.8734930000     2.0939970000 
 H        4.2965930000     2.0256470000     1.1862100000 
 H        3.9472670000     0.7475110000     3.8578630000 
 H        5.4436520000     1.1621620000     3.0170600000 
 H        3.8830060000    -1.4215220000     2.9381050000 
 H        5.6009950000    -1.1798840000     2.5206300000 
*
