! RI PBE def2-SVP def2-SVP/J NBO PAL2
% maxcore 2000
% output
    # printlevel mini
    print[ P_Basis ] 0
    print[ P_SCFInfo ] 1
    print[ P_SCFIterInfo ] 1
    print[ P_OrbEn ] 0
    print[ P_Cartesian ] 0
end
*xyz 0 1
 O        2.4996790000     1.1078940000    -0.1364780000 
 C        2.0861080000    -0.0169910000    -0.2734170000 
 N        2.8018100000    -1.0470500000    -0.8063040000 
 C        2.3442630000    -2.4209310000    -0.9916650000 
 C        3.5969220000    -3.0715240000    -1.6249190000 
 N        4.6108200000    -2.0254510000    -1.7329000000 
 C        4.1101020000    -0.9600220000    -1.2712310000 
 H        1.0677520000    -0.3249790000     0.0261690000 
 H        1.4744660000    -2.4561800000    -1.6509600000 
 H        2.0739520000    -2.8739050000    -0.0355500000 
 H        3.3921060000    -3.4791730000    -2.6175970000 
 H        3.9875640000    -3.8907790000    -1.0167990000 
 H        4.6156660000    -0.0042100000    -1.2127400000 
*
