! RI PBE def2-SVP def2-SVP/J NBO PAL2
% maxcore 2000
% output
    # printlevel mini
    print[ P_Basis ] 0
    print[ P_SCFInfo ] 1
    print[ P_SCFIterInfo ] 1
    print[ P_OrbEn ] 0
    print[ P_Cartesian ] 0
end
*xyz 0 1
 O        0.8571810000     0.0578590000     1.4845700000 
 C        2.0490060000    -0.1016370000     1.6026490000 
 N        2.9453990000    -0.0453110000     0.5918650000 
 C        4.3558640000    -0.2323290000     0.7273170000 
 C        5.0815430000    -1.2711960000    -0.1499900000 
 C        6.2853710000    -0.3104820000    -0.1908650000 
 C        5.3283550000     0.8356120000     0.1892980000 
 H        2.5312020000    -0.3148330000     2.5769570000 
 H        2.5634980000     0.1466760000    -0.3229910000 
 H        4.5595130000    -0.4262890000     1.7839960000 
 H        4.6029100000    -1.3435330000    -1.1304160000 
 H        5.2177120000    -2.2767910000     0.2502010000 
 H        6.8318910000    -0.2234560000    -1.1292170000 
 H        6.9964750000    -0.5226850000     0.6098280000 
 H        4.9142580000     1.3143210000    -0.7022640000 
 H        5.6731420000     1.6095640000     0.8763520000 
*
