! RI PBE def2-SVP def2-SVP/J NBO PAL2
% maxcore 2000
% output
    # printlevel mini
    print[ P_Basis ] 0
    print[ P_SCFInfo ] 1
    print[ P_SCFIterInfo ] 1
    print[ P_OrbEn ] 0
    print[ P_Cartesian ] 0
end
*xyz 0 1
 O        0.7035120000    -1.1067280000    -0.0158980000 
 C        1.9017220000    -0.9885070000     0.0552520000 
 N        2.7689260000    -1.2623740000    -0.9500360000 
 C        4.1837680000    -1.1201020000    -0.8681070000 
 C        5.0883880000    -2.2819450000    -1.3050930000 
 O        5.8965050000    -1.3927050000    -2.0835780000 
 C        4.9317940000    -0.3418170000    -1.9609570000 
 H        2.4187620000    -0.6370950000     0.9695240000 
 H        2.3546780000    -1.5867340000    -1.8121890000 
 H        4.4301610000    -0.7619060000     0.1324050000 
 H        4.5702420000    -3.0202190000    -1.9310180000 
 H        5.6616340000    -2.7994680000    -0.5318300000 
 H        4.3439250000    -0.2148530000    -2.8794020000 
 H        5.3862730000     0.6130630000    -1.6852620000 
*
