! RI PBE def2-SVP def2-SVP/J NBO PAL2
% maxcore 2000
% output
    # printlevel mini
    print[ P_Basis ] 0
    print[ P_SCFInfo ] 1
    print[ P_SCFIterInfo ] 1
    print[ P_OrbEn ] 0
    print[ P_Cartesian ] 0
end
*xyz 0 1
 O        3.4399770000     1.4773450000     0.7368040000 
 C        3.0922780000     1.1702610000     1.8541200000 
 N        3.1250920000    -0.0762070000     2.3714800000 
 C        3.6242950000    -1.2276490000     1.6539550000 
 C        4.5871080000    -2.0271660000     2.4827620000 
 C        4.0620510000    -3.0191160000     3.4802900000 
 C        4.7368080000    -3.4925000000     2.2288790000 
 H        2.7029420000     1.9101040000     2.5795510000 
 H        2.8188120000    -0.2018090000     3.3217300000 
 H        4.0987390000    -0.8464480000     0.7479420000 
 H        2.7919490000    -1.8700050000     1.3387650000 
 H        5.4872700000    -1.4912450000     2.7665950000 
 H        2.9873490000    -3.1485680000     3.5471150000 
 H        4.5860570000    -3.1330410000     4.4208260000 
 H        4.1166730000    -3.9359180000     1.4586520000 
 H        5.7248090000    -3.9266470000     2.3111340000 
*
