! RI PBE def2-SVP def2-SVP/J NBO PAL2
% maxcore 2000
% output
    # printlevel mini
    print[ P_Basis ] 0
    print[ P_SCFInfo ] 1
    print[ P_SCFIterInfo ] 1
    print[ P_OrbEn ] 0
    print[ P_Cartesian ] 0
end
*xyz 0 1
 O        3.6999260000     0.7053920000     2.9915330000 
 C        3.0336190000    -0.2332650000     3.3556020000 
 N        3.0299960000    -1.4588200000     2.7769420000 
 C        3.7526640000    -1.7534850000     1.5603080000 
 C        5.0890850000    -2.4282750000     1.7690200000 
 C        5.9570200000    -2.0940120000     2.9057160000 
 N        5.2946330000    -3.3997340000     2.8338530000 
 H        2.3479720000    -0.1802670000     4.2225650000 
 H        2.3584030000    -2.1243810000     3.1191260000 
 H        3.9066040000    -0.8103870000     1.0302690000 
 H        3.1206420000    -2.3896000000     0.9334180000 
 H        5.5616520000    -2.7092740000     0.8309620000 
 H        5.5871690000    -1.3660730000     3.6196630000 
 H        7.0346020000    -2.1179980000     2.7894420000 
 H        4.4959340000    -3.3935210000     3.4615800000 
*
