! RI PBE def2-SVP def2-SVP/J NBO PAL2
% maxcore 2000
% output
    # printlevel mini
    print[ P_Basis ] 0
    print[ P_SCFInfo ] 1
    print[ P_SCFIterInfo ] 1
    print[ P_OrbEn ] 0
    print[ P_Cartesian ] 0
end
*xyz 0 1
 O        3.0984020000     1.3218280000     0.2991380000 
 C        2.4525310000     0.4676090000     0.8609060000 
 N        2.8866080000    -0.7790600000     1.1488440000 
 C        4.2114540000    -1.2421260000     0.8388600000 
 C        4.9291090000    -1.7765520000     2.0492260000 
 C        4.6966310000    -1.2733890000     3.3948280000 
 O        4.1377080000    -2.5130920000     2.9702600000 
 H        1.4123920000     0.6327960000     1.1987710000 
 H        2.2767450000    -1.4028210000     1.6515180000 
 H        4.7616900000    -0.4002730000     0.4133760000 
 H        4.1707890000    -2.0295000000     0.0768900000 
 H        5.8965260000    -2.2274480000     1.8322120000 
 H        3.9793180000    -0.4717230000     3.5464110000 
 H        5.4834870000    -1.3537500000     4.1396400000 
*
