! RI PBE def2-SVP def2-SVP/J NBO PAL2
% maxcore 2000
% output
    # printlevel mini
    print[ P_Basis ] 0
    print[ P_SCFInfo ] 1
    print[ P_SCFIterInfo ] 1
    print[ P_OrbEn ] 0
    print[ P_Cartesian ] 0
end
*xyz 0 1
 O        2.5189440000     1.7706240000     2.2257570000 
 C        2.0915400000     0.6394080000     2.2537060000 
 N        2.7782940000    -0.4649090000     1.8846970000 
 C        4.1587420000    -0.4249920000     1.4784170000 
 C        5.1067730000    -0.9643130000     2.5534100000 
 C        4.8226480000    -2.3475070000     2.8976860000 
 C        4.5527010000    -3.4886650000     3.1570330000 
 H        1.0632980000     0.3993040000     2.5825950000 
 H        2.3464260000    -1.3631180000     2.0267800000 
 H        4.3979430000     0.6184910000     1.2729940000 
 H        4.2856670000    -0.9982120000     0.5562890000 
 H        5.0286410000    -0.3398000000     3.4486590000 
 H        6.1375860000    -0.8812340000     2.1939840000 
 H        4.3341080000    -4.5020650000     3.3985840000 
*
