! RI PBE def2-SVP def2-SVP/J NBO PAL2
% maxcore 2000
% output
    # printlevel mini
    print[ P_Basis ] 0
    print[ P_SCFInfo ] 1
    print[ P_SCFIterInfo ] 1
    print[ P_OrbEn ] 0
    print[ P_Cartesian ] 0
end
*xyz 0 1
 O        0.9535980000    -0.2802760000     0.2253040000 
 C        2.1527790000    -0.2661150000     0.2500610000 
 N        2.8843030000     0.3102480000     1.2599650000 
 C        4.2493100000     0.3341080000     1.3017810000 
 C        4.9764880000     0.8923840000     2.2799900000 
 C        6.3896010000     0.8731510000     2.2462950000 
 N        7.5429700000     0.8669200000     2.2353810000 
 H        2.7915050000    -0.7128890000    -0.5327120000 
 H        2.3485090000     0.7352700000     2.0046840000 
 H        4.7358630000    -0.1465380000     0.4595980000 
 H        4.5093420000     1.3776870000     3.1303330000 
*
