! RI PBE def2-SVP def2-SVP/J NBO PAL2
% maxcore 2000
% output
    # printlevel mini
    print[ P_Basis ] 0
    print[ P_SCFInfo ] 1
    print[ P_SCFIterInfo ] 1
    print[ P_OrbEn ] 0
    print[ P_Cartesian ] 0
end
*xyz 0 1
 O        2.8168580000     2.7956130000     1.0261280000 
 C        2.1908500000     2.1424940000     0.2242750000 
 N        2.7523730000     1.3230530000    -0.6931580000 
 C        4.1797070000     1.1411870000    -0.7746410000 
 C        4.8740350000     2.3400850000    -1.4332390000 
 C        6.3025390000     2.1186090000    -1.5736960000 
 N        7.4280420000     1.9113400000    -1.6819070000 
 H        1.0869010000     2.1537860000     0.1679490000 
 H        2.1508020000     0.8331910000    -1.3321830000 
 H        4.3834770000     0.2307640000    -1.3390830000 
 H        4.5778960000     1.0101040000     0.2333210000 
 H        4.7060530000     3.2309680000    -0.8232200000 
 H        4.4503660000     2.5274960000    -2.4238460000 
*
