! RI PBE def2-SVP def2-SVP/J NBO PAL2
% maxcore 2000
% output
    # printlevel mini
    print[ P_Basis ] 0
    print[ P_SCFInfo ] 1
    print[ P_SCFIterInfo ] 1
    print[ P_OrbEn ] 0
    print[ P_Cartesian ] 0
end
*xyz 0 1
 O        2.4836490000     0.7165500000     0.4039120000 
 C        2.0917270000    -0.3270450000    -0.0425410000 
 N        2.9103840000    -1.3453330000    -0.4718140000 
 C        4.2779070000    -1.2743650000    -0.4349230000 
 C        5.1112580000    -2.2414770000    -0.8423360000 
 C        6.5470100000    -2.0399820000    -0.7495950000 
 O        7.3763550000    -2.8488520000    -1.0896980000 
 H        1.0235360000    -0.5802880000    -0.1550390000 
 H        2.4743280000    -2.1809330000    -0.8294630000 
 H        4.6486450000    -0.3363840000    -0.0340280000 
 H        4.7602500000    -3.1863380000    -1.2460680000 
 H        6.8497520000    -1.0556540000    -0.3293180000 
*
