! RI PBE def2-SVP def2-SVP/J NBO PAL2
% maxcore 2000
% output
    # printlevel mini
    print[ P_Basis ] 0
    print[ P_SCFInfo ] 1
    print[ P_SCFIterInfo ] 1
    print[ P_OrbEn ] 0
    print[ P_Cartesian ] 0
end
*xyz 0 1
 O        2.3545500000     0.1323540000     0.4588810000 
 C        2.1366530000    -0.9130460000    -0.1007640000 
 N        3.0783160000    -1.7196730000    -0.7275360000 
 C        4.0671630000    -1.1128450000    -1.2664930000 
 N        5.1509530000    -1.7672790000    -1.7475500000 
 C        5.1244920000    -3.0263480000    -2.4248930000 
 C        5.5955430000    -1.7883340000    -3.1167970000 
 H        1.1258630000    -1.3547680000    -0.1304940000 
 H        4.1228970000    -0.0224060000    -1.3347550000 
 H        4.1456050000    -3.4174160000    -2.6817560000 
 H        5.8529580000    -3.7579280000    -2.0944030000 
 H        4.9387320000    -1.3523460000    -3.8630580000 
 H        6.6563850000    -1.6288550000    -3.2738830000 
*
