! RI PBE def2-SVP def2-SVP/J NBO PAL2
% maxcore 2000
% output
    # printlevel mini
    print[ P_Basis ] 0
    print[ P_SCFInfo ] 1
    print[ P_SCFIterInfo ] 1
    print[ P_OrbEn ] 0
    print[ P_Cartesian ] 0
end
*xyz 0 1
 O        1.9428140000     0.7943600000     2.5139240000 
 C        2.5391010000     0.6534880000     1.4742720000 
 N        3.8913430000     0.6704350000     1.3626770000 
 N        4.5165360000     0.5064070000     0.1553350000 
 C        5.4788810000     1.5248110000    -0.2925880000 
 C        6.3009180000     0.3913600000    -0.9250250000 
 C        5.5326940000    -0.5481840000     0.0170690000 
 H        2.0576790000     0.4944320000     0.4931520000 
 H        4.4389920000     0.8114500000     2.2072170000 
 H        6.0080640000     1.9934060000     0.5492480000 
 H        5.0611890000     2.3021420000    -0.9351670000 
 H        7.3810400000     0.4367820000    -0.8087140000 
 H        6.0471080000     0.2284600000    -1.9713910000 
 H        6.0785640000    -0.7230290000     0.9550160000 
 H        5.1598750000    -1.4994210000    -0.3673370000 
*
