! RI PBE def2-SVP def2-SVP/J NBO PAL2
% maxcore 2000
% output
    # printlevel mini
    print[ P_Basis ] 0
    print[ P_SCFInfo ] 1
    print[ P_SCFIterInfo ] 1
    print[ P_OrbEn ] 0
    print[ P_Cartesian ] 0
end
*xyz 0 1
 O        1.0009360000    -0.4917330000     2.9263120000 
 C        1.9990970000    -0.5699700000     2.2599980000 
 N        3.2531270000    -0.3668690000     2.7695750000 
 N        4.3258080000    -0.4676490000     1.9809080000 
 C        5.4715620000    -0.2675670000     2.5114510000 
 C        6.6571660000    -0.3554050000     1.7451010000 
 C        7.7035500000    -0.4133660000     1.1558010000 
 H        2.0312260000    -0.8089700000     1.1848080000 
 H        3.3356950000    -0.1396820000     3.7573390000 
 H        5.5812040000    -0.0218750000     3.5728830000 
 H        8.6196290000    -0.4690330000     0.6161240000 
*
