! RI PBE def2-SVP def2-SVP/J NBO PAL2
% maxcore 2000
% output
    # printlevel mini
    print[ P_Basis ] 0
    print[ P_SCFInfo ] 1
    print[ P_SCFIterInfo ] 1
    print[ P_OrbEn ] 0
    print[ P_Cartesian ] 0
end
*xyz 0 1
 O        4.6760320000     1.8603320000     1.3631870000 
 C        4.3484730000     1.7070030000     0.2140980000 
 N        4.7331360000     0.6422660000    -0.5425850000 
 O        4.0260380000     0.3890560000    -1.7036510000 
 C        4.8479220000     0.5316460000    -2.8333120000 
 C        4.1312100000     0.9004500000    -4.0773260000 
 C        5.0504110000     1.8894070000    -3.4103090000 
 H        3.7359620000     2.4215860000    -0.3641380000 
 H        5.0390140000    -0.1954430000    -0.0639650000 
 H        5.6597930000    -0.1884460000    -2.8773700000 
 H        3.0674720000     1.0788090000    -3.9836870000 
 H        4.4377450000     0.4320130000    -5.0034490000 
 H        4.5860550000     2.7193850000    -2.8928760000 
 H        6.0053480000     2.1128570000    -3.8687240000 
*
