! RI PBE def2-SVP def2-SVP/J NBO PAL2
% maxcore 2000
% output
    # printlevel mini
    print[ P_Basis ] 0
    print[ P_SCFInfo ] 1
    print[ P_SCFIterInfo ] 1
    print[ P_OrbEn ] 0
    print[ P_Cartesian ] 0
end
*xyz 0 1
 O        0.8818970000     1.4626400000    -0.3765100000 
 C        2.0693350000     1.5702520000    -0.2141840000 
 N        2.6995650000     1.2608960000     0.9574070000 
 O        4.0647290000     1.0714690000     0.9038240000 
 C        4.7182040000     2.0726760000     1.6885850000 
 C        6.1481220000     1.8473780000     1.6265170000 
 C        7.3340970000     1.6784580000     1.5880060000 
 H        2.7756180000     1.9632440000    -0.9670910000 
 H        2.2286490000     0.6279540000     1.5926300000 
 H        4.3692630000     2.0156450000     2.7264470000 
 H        4.4688900000     3.0667490000     1.3010060000 
 H        8.3871310000     1.5254290000     1.5508720000 
*
