! RI PBE def2-SVP def2-SVP/J NBO PAL2
% maxcore 2000
% output
    # printlevel mini
    print[ P_Basis ] 0
    print[ P_SCFInfo ] 1
    print[ P_SCFIterInfo ] 1
    print[ P_OrbEn ] 0
    print[ P_Cartesian ] 0
end
*xyz 0 1
 O        1.5374670000     0.6293830000    -0.1730600000 
 C        2.8153030000     0.4498300000     0.2168860000 
 O        3.2525450000     0.9980140000     1.1830770000 
 C        3.5931020000    -0.4775360000    -0.6760890000 
 C        4.7624720000    -1.2879250000    -0.1188030000 
 C        4.1558310000    -2.4607700000    -0.9057370000 
 N        2.8747870000    -1.7160210000    -1.1007330000 
 H        1.3660540000     0.1050180000    -0.9675560000 
 H        3.8770170000     0.0930070000    -1.5703950000 
 H        4.6833040000    -1.4098230000     0.9625210000 
 H        5.7702250000    -0.9612450000    -0.3732150000 
 H        4.0534130000    -3.4174950000    -0.3923590000 
 H        4.6396560000    -2.6294030000    -1.8705360000 
 H        2.2443350000    -1.9916420000    -0.3521900000 
*
