! RI PBE def2-SVP def2-SVP/J NBO PAL2
% maxcore 2000
% output
    # printlevel mini
    print[ P_Basis ] 0
    print[ P_SCFInfo ] 1
    print[ P_SCFIterInfo ] 1
    print[ P_OrbEn ] 0
    print[ P_Cartesian ] 0
end
*xyz 0 1
 O        1.0486440000     0.1409280000    -0.3117340000 
 C        2.3631090000     0.3880420000    -0.4543660000 
 O        2.8002330000     1.4917310000    -0.6257360000 
 C        3.1681980000    -0.8808440000    -0.3907280000 
 C        4.6463750000    -0.6376030000    -0.3309830000 
 C        5.3415460000    -0.6117880000     0.9669820000 
 N        5.5377520000    -1.7280990000     0.0423390000 
 H        0.5973610000     0.9937290000    -0.3862230000 
 H        2.9045780000    -1.4694780000    -1.2783100000 
 H        2.8255230000    -1.4652680000     0.4694330000 
 H        5.0324490000    -0.0089860000    -1.1267320000 
 H        4.7453540000    -0.7748340000     1.8601900000 
 H        6.2056470000     0.0274660000     1.1068910000 
 H        5.0022410000    -2.5344060000     0.3480870000 
*
