! RI PBE def2-SVP def2-SVP/J NBO PAL2
% maxcore 2000
% output
    # printlevel mini
    print[ P_Basis ] 0
    print[ P_SCFInfo ] 1
    print[ P_SCFIterInfo ] 1
    print[ P_OrbEn ] 0
    print[ P_Cartesian ] 0
end
*xyz 0 1
 O        1.7037880000    -1.1429450000     1.3291050000 
 C        1.4959230000    -0.1245520000     0.4948500000 
 O        0.4213270000     0.3712260000     0.3223340000 
 C        2.7457660000     0.3234340000    -0.2490570000 
 N        3.9367260000    -0.1974540000     0.3879980000 
 C        5.2149230000     0.2557280000    -0.1197320000 
 C        4.7187050000     0.7291120000     1.1898120000 
 H        2.6618460000    -1.3359300000     1.2828870000 
 H        2.7231640000     1.4166860000    -0.3351670000 
 H        2.6727160000    -0.0880850000    -1.2610490000 
 H        5.1996800000     0.9636620000    -0.9433350000 
 H        5.9948840000    -0.4953020000    -0.1701270000 
 H        4.3645940000     1.7540130000     1.2526930000 
 H        5.1317480000     0.3253160000     2.1067990000 
*
