! RI PBE def2-SVP def2-SVP/J NBO PAL2
% maxcore 2000
% output
    # printlevel mini
    print[ P_Basis ] 0
    print[ P_SCFInfo ] 1
    print[ P_SCFIterInfo ] 1
    print[ P_OrbEn ] 0
    print[ P_Cartesian ] 0
end
*xyz 0 1
 O        1.2334800000    -0.3429430000    -0.3626630000 
 N        2.4963500000    -0.3076530000     0.1731280000 
 C        3.3555890000    -1.3972290000     0.1486150000 
 C        4.6141540000    -0.9902730000     0.3295010000 
 C        4.6198610000     0.5120090000     0.4311190000 
 C        3.1783150000     0.8754800000     0.1488910000 
 N        2.5485130000     1.9419420000    -0.1524300000 
 H        1.0993740000     0.6062460000    -0.5731250000 
 H        2.9446780000    -2.3914350000     0.0599610000 
 H        5.4723630000    -1.6263600000     0.4750580000 
 H        5.2905920000     1.0016070000    -0.2794840000 
 H        4.9034440000     0.8551630000     1.4327210000 
 H        3.1445790000     2.7597260000    -0.1725820000 
*
