! RI PBE def2-SVP def2-SVP/J NBO PAL2
% maxcore 2000
% output
    # printlevel mini
    print[ P_Basis ] 0
    print[ P_SCFInfo ] 1
    print[ P_SCFIterInfo ] 1
    print[ P_OrbEn ] 0
    print[ P_Cartesian ] 0
end
*xyz 0 1
 O        1.1679710000     0.3712370000     0.4727760000 
 N        2.4031690000     0.3312960000    -0.1261990000 
 C        3.2957440000     1.4473270000     0.0099170000 
 C        4.5202750000     0.9159790000    -0.7468690000 
 C        4.4456070000    -0.6077070000    -0.5907080000 
 C        2.9981600000    -0.8719030000    -0.2594780000 
 O        2.4081150000    -1.9210300000    -0.0703910000 
 H        0.9745820000    -0.5826950000     0.5709400000 
 H        3.5055080000     1.6518580000     1.0681880000 
 H        2.8725740000     2.3475590000    -0.4390170000 
 H        5.4463160000     1.3400140000    -0.3606210000 
 H        4.4401910000     1.1890850000    -1.8001850000 
 H        5.0427160000    -0.9710420000     0.2512790000 
 H        4.7599740000    -1.1622780000    -1.4748420000 
*
