! RI PBE def2-SVP def2-SVP/J NBO PAL2
% maxcore 2000
% output
    # printlevel mini
    print[ P_Basis ] 0
    print[ P_SCFInfo ] 1
    print[ P_SCFIterInfo ] 1
    print[ P_OrbEn ] 0
    print[ P_Cartesian ] 0
end
*xyz 0 1
 O        0.9849940000     0.0459620000    -0.2840440000 
 N        2.3092010000     0.1761080000     0.1600570000 
 C        2.9572780000     1.3485070000    -0.3848260000 
 C        4.3905960000     1.3381510000     0.1147960000 
 C        5.0725620000     0.0323670000    -0.2751760000 
 N        4.2576140000    -1.1562250000    -0.1088010000 
 C        3.0097550000    -1.0160120000     0.0468750000 
 H        0.4529470000     0.2613710000     0.4888330000 
 H        2.4198560000     2.2354490000    -0.0417180000 
 H        2.9201670000     1.3320440000    -1.4827620000 
 H        4.3846890000     1.4427550000     1.2037730000 
 H        4.9322520000     2.1963570000    -0.2910790000 
 H        5.9882300000    -0.1029940000     0.3082410000 
 H        5.3922580000     0.0665360000    -1.3238980000 
 H        2.3689020000    -1.8905770000     0.1500280000 
*
