! RI PBE def2-SVP def2-SVP/J NBO PAL2
% maxcore 2000
% output
    # printlevel mini
    print[ P_Basis ] 0
    print[ P_SCFInfo ] 1
    print[ P_SCFIterInfo ] 1
    print[ P_OrbEn ] 0
    print[ P_Cartesian ] 0
end
*xyz 0 1
 O        1.2980400000     0.5236510000     0.6143810000 
 N        2.4671170000     0.2785620000    -0.1247180000 
 C        3.2922900000     1.3969320000    -0.2393460000 
 N        4.5208850000     1.2312470000     0.0520950000 
 C        4.6852950000    -0.1154450000     0.4991760000 
 C        4.3934880000    -1.2025130000    -0.4994110000 
 C        3.3085700000    -0.7633940000     0.4175350000 
 H        0.5927970000     0.1915460000     0.0495890000 
 H        2.8638170000     2.3260630000    -0.5964240000 
 H        5.4211340000    -0.2833630000     1.2757440000 
 H        4.8325580000    -2.1741870000    -0.3082860000 
 H        4.3286070000    -0.9180840000    -1.5439390000 
 H        2.8530030000    -1.4083050000     1.1559030000 
*
