! RI PBE def2-SVP def2-SVP/J NBO PAL2
% maxcore 2000
% output
    # printlevel mini
    print[ P_Basis ] 0
    print[ P_SCFInfo ] 1
    print[ P_SCFIterInfo ] 1
    print[ P_OrbEn ] 0
    print[ P_Cartesian ] 0
end
*xyz 0 1
 O        1.1795670000    -0.1666650000    -0.1395980000 
 N        2.5555560000    -0.2010360000    -0.2282690000 
 C        3.2490530000    -1.2099220000     0.4278060000 
 N        4.4412380000    -0.9296180000     0.7522930000 
 C        4.6484470000     0.4637040000     0.3451940000 
 C        3.2973160000     0.9788830000    -0.0941600000 
 C        2.8556560000     2.2140350000    -0.2950900000 
 H        0.8690440000    -0.2585890000    -1.0475750000 
 H        2.7585010000    -2.1643860000     0.5832860000 
 H        5.3655510000     0.4892680000    -0.4831540000 
 H        5.0781610000     1.0445690000     1.1636930000 
 H        3.5135150000     3.0584770000    -0.1436460000 
 H        1.8337840000     2.4065690000    -0.5934690000 
*
