! RI PBE def2-SVP def2-SVP/J NBO PAL2
% maxcore 2000
% output
    # printlevel mini
    print[ P_Basis ] 0
    print[ P_SCFInfo ] 1
    print[ P_SCFIterInfo ] 1
    print[ P_OrbEn ] 0
    print[ P_Cartesian ] 0
end
*xyz 0 1
 O        1.0164160000    -0.0343450000    -0.0212360000 
 N        2.3769500000    -0.0292410000    -0.1040640000 
 C        2.9443500000    -0.1385370000     1.0386890000 
 C        4.4049760000    -0.1533920000     1.1643570000 
 C        4.6869030000    -0.2776870000     2.4718840000 
 C        3.4269090000    -0.3467690000     3.2286350000 
 C        2.3825680000    -0.2647210000     2.3839340000 
 H        0.7376210000     0.0529800000    -0.9380500000 
 H        5.0851590000    -0.0758090000     0.3299900000 
 H        5.6715740000    -0.3217210000     2.9162300000 
 H        3.3673550000    -0.4484450000     4.3042910000 
 H        1.3305290000    -0.2848130000     2.6186600000 
*
