! RI PBE def2-SVP def2-SVP/J NBO PAL2
% maxcore 2000
% output
    # printlevel mini
    print[ P_Basis ] 0
    print[ P_SCFInfo ] 1
    print[ P_SCFIterInfo ] 1
    print[ P_OrbEn ] 0
    print[ P_Cartesian ] 0
end
*xyz 0 1
 O        1.0672150000     0.0150140000    -0.4010410000 
 N        2.4486770000    -0.0897560000    -0.2738070000 
 C        3.0369200000     0.8841560000    -0.8268650000 
 C        2.4121110000     2.0476620000    -1.5499750000 
 C        3.6098140000     2.8457700000    -1.9690120000 
 C        4.7521850000     2.2876880000    -1.5824790000 
 C        4.5405120000     1.0080310000    -0.8298880000 
 H        0.7533710000    -0.7713160000     0.0531250000 
 H        1.7282500000     2.5987610000    -0.8935030000 
 H        1.7992360000     1.7053860000    -2.3923370000 
 H        3.5296470000     3.7722030000    -2.5249090000 
 H        5.7380020000     2.6922470000    -1.7770320000 
 H        4.9443720000     1.0466780000     0.1878260000 
 H        5.0151970000     0.1495660000    -1.3178050000 
*
