! RI PBE def2-SVP def2-SVP/J NBO PAL2
% maxcore 2000
% output
    # printlevel mini
    print[ P_Basis ] 0
    print[ P_SCFInfo ] 1
    print[ P_SCFIterInfo ] 1
    print[ P_OrbEn ] 0
    print[ P_Cartesian ] 0
end
*xyz 0 1
 O        0.9143050000    -0.0135020000    -0.2065600000 
 N        2.3015620000    -0.0310440000    -0.0888590000 
 C        2.8200250000     1.0748040000    -0.4447780000 
 C        4.3128750000     1.3004090000    -0.4060730000 
 C        4.4984030000     2.7435420000    -0.9086680000 
 C        3.1062720000     3.2164340000    -1.1909580000 
 C        2.1807290000     2.2891990000    -0.9325930000 
 H        0.6695830000    -0.8934140000     0.0901410000 
 H        4.8268100000     0.5753190000    -1.0395990000 
 H        4.6951270000     1.1655490000     0.6072900000 
 H        5.1208870000     2.7946170000    -1.8080860000 
 H        4.9878620000     3.3832390000    -0.1668530000 
 H        2.8953840000     4.2117960000    -1.5654410000 
 H        1.1125760000     2.3921600000    -1.0556830000 
*
