! RI PBE def2-SVP def2-SVP/J NBO PAL2
% maxcore 2000
% output
    # printlevel mini
    print[ P_Basis ] 0
    print[ P_SCFInfo ] 1
    print[ P_SCFIterInfo ] 1
    print[ P_OrbEn ] 0
    print[ P_Cartesian ] 0
end
*xyz 0 1
 O        1.0840380000    -0.1942690000    -0.2857350000 
 N        2.4643930000    -0.0120900000    -0.0824720000 
 C        2.9326530000    -0.9709060000     0.6113090000 
 C        2.2331210000    -2.1963250000     1.1249190000 
 C        3.3027900000    -2.8883950000     1.9731070000 
 C        4.6148240000    -2.3704520000     1.3876690000 
 N        4.2540500000    -1.0223780000     0.9942040000 
 H        0.8531450000     0.5827230000    -0.7992060000 
 H        1.9235250000    -2.8021230000     0.2678040000 
 H        1.3257270000    -1.9383980000     1.6710920000 
 H        3.2353830000    -3.9761360000     1.9492160000 
 H        3.2195340000    -2.5670780000     3.0137120000 
 H        4.9295210000    -2.9855710000     0.5313340000 
 H        5.4291140000    -2.3616400000     2.1150960000 
 H        4.9071800000    -0.4569520000     0.4763630000 
*
