! RI PBE def2-SVP def2-SVP/J NBO PAL2
% maxcore 2000
% output
    # printlevel mini
    print[ P_Basis ] 0
    print[ P_SCFInfo ] 1
    print[ P_SCFIterInfo ] 1
    print[ P_OrbEn ] 0
    print[ P_Cartesian ] 0
end
*xyz 0 1
 O        1.5006000000    -0.7452880000     0.4471040000 
 N        2.0893240000     0.1649860000    -0.1178310000 
 C        2.8328860000    -0.2230530000    -1.2063390000 
 C        3.6036450000     0.5727210000    -2.0425220000 
 C        4.1680350000    -0.2725600000    -3.0030350000 
 C        3.7264630000    -1.5580900000    -2.7262940000 
 N        2.9262090000    -1.5150430000    -1.6461350000 
 H        3.7216010000     1.6399200000    -1.9399480000 
 H        4.8242370000     0.0043220000    -3.8126260000 
 H        3.9370710000    -2.4867690000    -3.2342660000 
 H        2.4472390000    -2.2752450000    -1.1912970000 
*
