! RI PBE def2-SVP def2-SVP/J NBO PAL2
% maxcore 2000
% output
    # printlevel mini
    print[ P_Basis ] 0
    print[ P_SCFInfo ] 1
    print[ P_SCFIterInfo ] 1
    print[ P_OrbEn ] 0
    print[ P_Cartesian ] 0
end
*xyz 0 1
 O        0.9887520000     0.0409100000    -0.2670060000 
 N        2.3605010000     0.0797490000    -0.0239090000 
 C        2.8740150000     1.0527960000    -0.6440630000 
 C        2.2591970000     2.0901750000    -1.5356630000 
 C        3.4659390000     2.8995100000    -1.8967780000 
 C        4.5145540000     2.3622580000    -1.2901550000 
 O        4.2206660000     1.2575810000    -0.5288650000 
 H        0.7101860000    -0.7228230000     0.2444480000 
 H        1.4850510000     2.6503000000    -0.9998100000 
 H        1.7607840000     1.6189590000    -2.3899000000 
 H        3.4802440000     3.7668060000    -2.5374170000 
 H        5.5580190000     2.6377790000    -1.2875830000 
*
