! RI PBE def2-SVP def2-SVP/J NBO PAL2
% maxcore 2000
% output
    # printlevel mini
    print[ P_Basis ] 0
    print[ P_SCFInfo ] 1
    print[ P_SCFIterInfo ] 1
    print[ P_OrbEn ] 0
    print[ P_Cartesian ] 0
end
*xyz 0 1
 O        2.1526730000    -1.3355560000     0.0768450000 
 N        2.0872880000    -0.1512910000    -0.1704330000 
 C        2.8523600000     0.2716720000    -1.2575660000 
 C        2.8654540000     1.5988470000    -1.6441020000 
 N        3.6847690000     1.6939480000    -2.7085600000 
 C        4.2039620000     0.4570660000    -3.0215230000 
 C        3.7072080000    -0.4516930000    -2.1388940000 
 H        2.3475730000     2.4459490000    -1.2241510000 
 H        3.8886130000     2.5441310000    -3.2037870000 
 H        4.8839580000     0.3393740000    -3.8501710000 
 H        3.9117430000    -1.5087470000    -2.1033570000 
*
