! RI PBE def2-SVP def2-SVP/J NBO PAL2
% maxcore 2000
% output
    # printlevel mini
    print[ P_Basis ] 0
    print[ P_SCFInfo ] 1
    print[ P_SCFIterInfo ] 1
    print[ P_OrbEn ] 0
    print[ P_Cartesian ] 0
end
*xyz 0 1
 O        1.0665470000    -0.1430800000     0.3226080000 
 N        2.4535460000    -0.1176800000     0.2392990000 
 C        2.9386340000     0.8456600000     0.8967630000 
 C        2.2415430000     1.8834220000     1.7216910000 
 C        3.3968010000     2.8170140000     2.0731550000 
 O        4.5584700000     2.0059430000     2.0555980000 
 C        4.4178160000     1.1108760000     0.9735930000 
 H        0.8362290000    -0.9132490000    -0.2040490000 
 H        1.8108000000     1.4135000000     2.6109920000 
 H        1.4263610000     2.3607640000     1.1752850000 
 H        3.3192950000     3.2675790000     3.0625470000 
 H        3.4831310000     3.6213330000     1.3279930000 
 H        5.0070790000     0.2148240000     1.1704630000 
 H        4.7728450000     1.5667150000     0.0362700000 
*
