! RI PBE def2-SVP def2-SVP/J NBO PAL2
% maxcore 2000
% output
    # printlevel mini
    print[ P_Basis ] 0
    print[ P_SCFInfo ] 1
    print[ P_SCFIterInfo ] 1
    print[ P_OrbEn ] 0
    print[ P_Cartesian ] 0
end
*xyz 0 1
 O        1.0267680000    -0.2121490000     0.0882270000 
 N        2.4127160000    -0.1032170000     0.1617380000 
 C        2.9802220000    -0.9684330000    -0.5784030000 
 C        4.4808540000    -1.0650910000    -0.6805270000 
 O        4.7220670000    -2.1443610000    -1.5977530000 
 C        3.5230350000    -2.6157740000    -1.9805360000 
 C        2.4591140000    -2.0013230000    -1.4457920000 
 H        0.7302160000     0.4830740000     0.6808260000 
 H        4.9554080000    -1.3103710000     0.2717390000 
 H        4.9371460000    -0.1600550000    -1.0865710000 
 H        3.5650020000    -3.4405400000    -2.6794370000 
 H        1.4212330000    -2.2256690000    -1.6216190000 
*
