! RI PBE def2-SVP def2-SVP/J NBO PAL2
% maxcore 2000
% output
    # printlevel mini
    print[ P_Basis ] 0
    print[ P_SCFInfo ] 1
    print[ P_SCFIterInfo ] 1
    print[ P_OrbEn ] 0
    print[ P_Cartesian ] 0
end
*xyz 0 1
 O        1.0861450000    -0.1461630000    -0.0979230000 
 N        2.4509420000     0.0555020000     0.1226680000 
 C        2.8950280000     0.9564650000    -0.6547870000 
 O        4.2095530000     1.2901330000    -0.5835790000 
 C        4.4757280000     2.3092890000    -1.5363430000 
 C        3.1698110000     2.5649880000    -2.2040940000 
 C        2.2469290000     1.7642760000    -1.6781480000 
 H        0.8793340000    -0.8348630000     0.5378160000 
 H        5.2472020000     1.9582890000    -2.2326990000 
 H        4.8678370000     3.1929760000    -1.0180300000 
 H        3.0337990000     3.2959780000    -2.9895980000 
 H        1.2001940000     1.6853290000    -1.9245530000 
*
