! RI PBE def2-SVP def2-SVP/J NBO PAL2
% maxcore 2000
% output
    # printlevel mini
    print[ P_Basis ] 0
    print[ P_SCFInfo ] 1
    print[ P_SCFIterInfo ] 1
    print[ P_OrbEn ] 0
    print[ P_Cartesian ] 0
end
*xyz 0 1
 O        0.8693090000    -0.6903740000     1.3935760000 
 N        2.2137530000    -0.9500880000     1.6008330000 
 C        2.9460490000    -0.3043730000     0.7933370000 
 C        4.4053830000    -0.4729110000     0.7915780000 
 C        5.0917410000    -1.3780620000     1.7789910000 
 C        5.0052870000    -1.7765400000     0.3460550000 
 O        6.1281220000    -1.6867960000    -0.4669070000 
 H        0.4399040000    -1.2126220000     2.0763400000 
 H        2.4948660000     0.3699640000     0.0627040000 
 H        4.9686450000     0.3947720000     0.4675040000 
 H        4.4663440000    -1.8925770000     2.4968160000 
 H        6.0581530000    -1.0461050000     2.1376870000 
 H        4.2965610000    -2.5594570000     0.0844140000 
 H        6.7335950000    -2.3927420000    -0.2236090000 
*
