! RI PBE def2-SVP def2-SVP/J NBO PAL2
% maxcore 2000
% output
    # printlevel mini
    print[ P_Basis ] 0
    print[ P_SCFInfo ] 1
    print[ P_SCFIterInfo ] 1
    print[ P_OrbEn ] 0
    print[ P_Cartesian ] 0
end
*xyz 0 1
 O        0.9775750000    -0.2018110000    -0.7860030000 
 N        2.3498260000    -0.3528400000    -0.6740840000 
 C        2.9706420000     0.6870970000    -1.0446540000 
 C        4.4474960000     0.7358120000    -1.0044550000 
 C        5.2121500000     1.1610140000    -2.2820520000 
 C        6.2028750000     1.9267300000    -1.3872100000 
 C        5.1325050000     1.9215070000    -0.2813620000 
 H        0.6412800000    -1.0476570000    -0.4778250000 
 H        2.4177180000     1.5620830000    -1.3990680000 
 H        4.8265060000    -0.2165100000    -0.6273370000 
 H        4.6106150000     1.8454450000    -2.8862880000 
 H        5.5920620000     0.3673360000    -2.9266590000 
 H        6.5691750000     2.8915710000    -1.7393970000 
 H        7.0594760000     1.3055580000    -1.1169560000 
 H        4.5086780000     2.8182490000    -0.3269350000 
 H        5.4456200000     1.7655160000     0.7517840000 
*
