! RI PBE def2-SVP def2-SVP/J NBO PAL2
% maxcore 2000
% output
    # printlevel mini
    print[ P_Basis ] 0
    print[ P_SCFInfo ] 1
    print[ P_SCFIterInfo ] 1
    print[ P_OrbEn ] 0
    print[ P_Cartesian ] 0
end
*xyz 0 1
 O        0.6928180000    -0.4215900000    -1.5345310000 
 N        2.0325750000    -0.6514190000    -1.7768640000 
 C        2.7734610000    -0.0680520000    -0.9310440000 
 C        4.2427680000    -0.1947110000    -1.0238530000 
 C        5.0826880000     1.0938440000    -0.9459800000 
 O        5.8725390000     0.5750610000     0.1287600000 
 C        5.0156500000    -0.5640860000     0.2560410000 
 H        0.2562620000    -0.9127270000    -2.2361480000 
 H        2.3347010000     0.5313980000    -0.1287510000 
 H        4.5016770000    -0.8226860000    -1.8756030000 
 H        4.5167070000     1.9832690000    -0.6436610000 
 H        5.6847530000     1.3316200000    -1.8269160000 
 H        4.4153420000    -0.5222920000     1.1729330000 
 H        5.5700390000    -1.5059180000     0.2304380000 
*
