! RI PBE def2-SVP def2-SVP/J NBO PAL2
% maxcore 2000
% output
    # printlevel mini
    print[ P_Basis ] 0
    print[ P_SCFInfo ] 1
    print[ P_SCFIterInfo ] 1
    print[ P_OrbEn ] 0
    print[ P_Cartesian ] 0
end
*xyz 0 1
 O        0.8670510000    -0.3112210000     0.1400320000 
 N        1.9675820000    -0.2068490000    -0.6958530000 
 C        2.9527730000    -0.8723910000    -0.2628250000 
 C        4.2318800000    -0.8976540000    -1.0259030000 
 C        4.6307030000    -2.2965740000    -1.4261620000 
 C        6.0724490000    -2.6275160000    -1.6509750000 
 C        5.3558850000    -3.1777930000    -0.4545970000 
 H        0.2084100000     0.2309610000    -0.3023040000 
 H        2.8687460000    -1.4456880000     0.6634320000 
 H        5.0276500000    -0.4716040000    -0.4014070000 
 H        4.1288680000    -0.2545500000    -1.9037900000 
 H        3.9196120000    -2.7936800000    -2.0784480000 
 H        6.7990200000    -1.8402470000    -1.4866620000 
 H        6.3243140000    -3.3072030000    -2.4551690000 
 H        5.6030840000    -2.7607290000     0.5151040000 
 H        5.1191730000    -4.2341600000    -0.4382720000 
*
