! RI PBE def2-SVP def2-SVP/J NBO PAL2
% maxcore 2000
% output
    # printlevel mini
    print[ P_Basis ] 0
    print[ P_SCFInfo ] 1
    print[ P_SCFIterInfo ] 1
    print[ P_OrbEn ] 0
    print[ P_Cartesian ] 0
end
*xyz 0 1
 O        0.8504450000     0.3691810000     0.6423100000 
 N        2.1469440000     0.1825670000     1.0855640000 
 C        2.9699200000     0.9136870000     0.4611520000 
 C        4.4182940000     0.8546510000     0.8063830000 
 C        4.9436440000     2.1888000000     1.2622540000 
 C        6.2970410000     2.6304050000     0.9470410000 
 O        5.1797630000     3.1546000000     0.2484240000 
 H        0.3442680000    -0.2379280000     1.1890790000 
 H        2.6321720000     1.5953130000    -0.3216990000 
 H        4.9914670000     0.5418650000    -0.0734460000 
 H        4.5641970000     0.1086540000     1.5920450000 
 H        4.4696980000     2.5963950000     2.1545170000 
 H        6.9445500000     1.9781970000     0.3651120000 
 H        6.8047070000     3.3306130000     1.6054630000 
*
