! RI PBE def2-SVP def2-SVP/J NBO PAL2
% maxcore 2000
% output
    # printlevel mini
    print[ P_Basis ] 0
    print[ P_SCFInfo ] 1
    print[ P_SCFIterInfo ] 1
    print[ P_OrbEn ] 0
    print[ P_Cartesian ] 0
end
*xyz 0 1
 O        1.6101840000     0.1152060000     0.2649270000 
 N        2.8839470000    -0.3188310000    -0.0324910000 
 C        2.9567540000    -0.9441130000    -1.1523390000 
 C        1.8274350000    -1.1066970000    -2.0660030000 
 C        1.8243500000    -1.9272620000    -3.1140340000 
 C        4.2771130000    -1.4886940000    -1.5021880000 
 C        5.1522680000    -1.9603950000    -0.6220940000 
 H        1.7409080000     0.6037380000     1.0820030000 
 H        0.9489860000    -0.5138290000    -1.8419250000 
 H        2.6703160000    -2.5601490000    -3.3574290000 
 H        0.9569320000    -2.0016910000    -3.7590520000 
 H        4.5219670000    -1.4923300000    -2.5602330000 
 H        4.9226670000    -1.9891550000     0.4365870000 
 H        6.1229850000    -2.3228870000    -0.9387380000 
*
