! RI PBE def2-SVP def2-SVP/J NBO PAL2
% maxcore 2000
% output
    # printlevel mini
    print[ P_Basis ] 0
    print[ P_SCFInfo ] 1
    print[ P_SCFIterInfo ] 1
    print[ P_OrbEn ] 0
    print[ P_Cartesian ] 0
end
*xyz 0 1
 O        0.9362360000    -0.0866480000     0.2546760000 
 N        2.3068730000    -0.0986370000     0.2433880000 
 C        2.8027710000     0.6441980000    -0.6844490000 
 C        2.0233510000     1.4288800000    -1.6402900000 
 C        2.5704220000     2.1857290000    -2.5872120000 
 C        4.2294600000     0.6694700000    -0.7439310000 
 C        5.4260260000     0.7225890000    -0.8332200000 
 H        0.7252190000    -0.6746040000     0.9855410000 
 H        0.9480400000     1.3615870000    -1.5363290000 
 H        3.6461350000     2.2610570000    -2.7011260000 
 H        1.9518700000     2.7505380000    -3.2740480000 
 H        6.4882070000     0.7555500000    -0.8952300000 
*
