! RI PBE def2-SVP def2-SVP/J NBO PAL2
% maxcore 2000
% output
    # printlevel mini
    print[ P_Basis ] 0
    print[ P_SCFInfo ] 1
    print[ P_SCFIterInfo ] 1
    print[ P_OrbEn ] 0
    print[ P_Cartesian ] 0
end
*xyz 0 1
 O        1.0704540000     1.3516800000     0.6542970000 
 N        2.4220220000     1.5917350000     0.5429140000 
 C        3.0534310000     0.5523030000     0.1721560000 
 C        4.5006120000     0.5780960000    -0.0031540000 
 C        5.1213720000    -0.5445720000    -0.3882250000 
 C        5.2132130000     1.8310560000     0.2817080000 
 C        6.2991040000     2.2450320000    -0.3614930000 
 H        0.7180280000     2.2015710000     0.9332320000 
 H        2.5204040000    -0.3806730000    -0.0187950000 
 H        4.5615050000    -1.4465300000    -0.6076980000 
 H        6.1992150000    -0.5911010000    -0.4794060000 
 H        4.7793860000     2.4533610000     1.0580240000 
 H        6.7249660000     1.6841580000    -1.1867920000 
 H        6.7882680000     3.1734830000    -0.0921580000 
*
