! RI PBE def2-SVP def2-SVP/J NBO PAL2
% maxcore 2000
% output
    # printlevel mini
    print[ P_Basis ] 0
    print[ P_SCFInfo ] 1
    print[ P_SCFIterInfo ] 1
    print[ P_OrbEn ] 0
    print[ P_Cartesian ] 0
end
*xyz 0 1
 O        0.8575150000     0.0670500000    -0.1212810000 
 N        2.1887700000     0.1698230000     0.1931060000 
 C        2.8841800000     0.4365000000    -0.8449400000 
 C        4.2828340000     0.5860890000    -0.7503340000 
 C        5.4833320000     0.7254480000    -0.7289730000 
 C        6.8860640000     0.8904950000    -0.7187790000 
 C        7.6456660000     0.7869800000     0.3735180000 
 H        0.4457190000    -0.1319240000     0.7248160000 
 H        2.4040770000     0.5520920000    -1.8180050000 
 H        7.3480340000     1.1155200000    -1.6768980000 
 H        7.2149650000     0.5638200000     1.3421030000 
 H        8.7181560000     0.9247360000     0.3162560000 
*
