! RI PBE def2-SVP def2-SVP/J NBO PAL2
% maxcore 2000
% output
    # printlevel mini
    print[ P_Basis ] 0
    print[ P_SCFInfo ] 1
    print[ P_SCFIterInfo ] 1
    print[ P_OrbEn ] 0
    print[ P_Cartesian ] 0
end
*xyz 0 1
 O        1.1071160000     0.1432900000    -0.1508400000 
 N        2.4664560000     0.1352860000    -0.0903490000 
 C        2.9246640000    -0.8512800000     0.5946880000 
 C        2.1471840000    -1.8869750000     1.2628010000 
 C        2.6992760000    -2.8796230000     1.9556700000 
 C        4.3566280000    -0.8926880000     0.6805390000 
 N        5.4988080000    -0.9803600000     0.7859640000 
 H        0.9154330000     0.9212450000    -0.6841660000 
 H        1.0726680000    -1.8030370000     1.1625990000 
 H        3.7747950000    -2.9737400000     2.0627910000 
 H        2.0834820000    -3.6291180000     2.4370130000 
*
