! RI PBE def2-SVP def2-SVP/J NBO PAL2
% maxcore 2000
% output
    # printlevel mini
    print[ P_Basis ] 0
    print[ P_SCFInfo ] 1
    print[ P_SCFIterInfo ] 1
    print[ P_OrbEn ] 0
    print[ P_Cartesian ] 0
end
*xyz 0 1
 O        0.9780400000     0.3236050000    -0.3255980000 
 N        2.3352540000     0.4276880000    -0.2376390000 
 C        2.9271470000    -0.4359050000    -0.9674420000 
 C        4.3648070000    -0.4511370000    -0.9803140000 
 C        5.0730390000    -1.3207320000    -1.7151870000 
 C        6.4898150000    -1.3360650000    -1.7281450000 
 N        7.6420490000    -1.3684380000    -1.7555020000 
 H        0.6579780000     1.0169430000     0.2603260000 
 H        2.3602710000    -1.1477210000    -1.5689790000 
 H        4.8661410000     0.2836540000    -0.3593600000 
 H        4.5798810000    -2.0594510000    -2.3394600000 
*
