! RI PBE def2-SVP def2-SVP/J NBO PAL2
% maxcore 2000
% output
    # printlevel mini
    print[ P_Basis ] 0
    print[ P_SCFInfo ] 1
    print[ P_SCFIterInfo ] 1
    print[ P_OrbEn ] 0
    print[ P_Cartesian ] 0
end
*xyz 0 1
 O        0.8715420000     1.2576900000    -0.1365260000 
 N        2.2495530000     1.2736980000    -0.1767970000 
 C        2.7615760000     0.8173530000     0.8870240000 
 C        4.2444130000     0.7615750000     1.0101780000 
 C        4.7842500000     1.6329840000     2.1533240000 
 C        4.3033120000     1.2095700000     3.4596160000 
 N        3.9142550000     0.8555430000     4.4818360000 
 H        0.6220340000     1.6194030000    -0.9916180000 
 H        2.1329230000     0.4711560000     1.7099800000 
 H        4.6869590000     1.0985450000     0.0714630000 
 H        4.5589990000    -0.2735010000     1.1782100000 
 H        4.4970490000     2.6770640000     2.0010420000 
 H        5.8769440000     1.5957200000     2.1655480000 
*
