! RI PBE def2-SVP def2-SVP/J NBO PAL2
% maxcore 2000
% output
    # printlevel mini
    print[ P_Basis ] 0
    print[ P_SCFInfo ] 1
    print[ P_SCFIterInfo ] 1
    print[ P_OrbEn ] 0
    print[ P_Cartesian ] 0
end
*xyz 0 1
 O        0.7588100000    -1.3049870000    -0.1900390000 
 N        2.1394960000    -1.3837310000    -0.2451070000 
 C        2.6831640000    -0.8676020000     0.7749310000 
 C        4.1693300000    -0.8683810000     0.8849310000 
 C        4.6820430000    -1.7126040000     2.0451980000 
 C        4.3860060000    -1.1626020000     3.4078860000 
 O        3.8292310000    -0.1202580000     3.6212290000 
 H        0.4856790000    -1.7135300000    -1.0159150000 
 H        2.0817180000    -0.4273980000     1.5711150000 
 H        4.5148550000     0.1614500000     1.0215890000 
 H        4.5834930000    -1.2422720000    -0.0530690000 
 H        5.7727060000    -1.8297350000     1.9896730000 
 H        4.2862490000    -2.7353660000     2.0047330000 
 H        4.7362200000    -1.7961840000     4.2517450000 
*
