! RI PBE def2-SVP def2-SVP/J NBO PAL2
% maxcore 2000
% output
    # printlevel mini
    print[ P_Basis ] 0
    print[ P_SCFInfo ] 1
    print[ P_SCFIterInfo ] 1
    print[ P_OrbEn ] 0
    print[ P_Cartesian ] 0
end
*xyz 0 1
 O       -0.5723260000    -0.5844530000     1.9567260000 
 N        0.3288870000    -1.2761240000     1.1687240000 
 C        1.7233390000    -1.0503000000     1.4669390000 
 C        2.1325080000    -1.7315480000     2.7333870000 
 C        2.5366570000    -1.0924850000     3.8214860000 
 C       -0.1306460000    -1.6983350000    -0.0367810000 
 O        0.5696880000    -2.1423730000    -0.9157310000 
 H       -0.6906270000    -1.1256500000     2.7472000000 
 H        1.9087500000     0.0272040000     1.5286790000 
 H        2.2669350000    -1.4525580000     0.6076990000 
 H        2.0763990000    -2.8180620000     2.7274180000 
 H        2.5980570000    -0.0087330000     3.8482660000 
 H        2.8321400000    -1.6253020000     4.7177750000 
 H       -1.2280610000    -1.6034020000    -0.0986860000 
*
