! RI PBE def2-SVP def2-SVP/J NBO PAL2
% maxcore 2000
% output
    # printlevel mini
    print[ P_Basis ] 0
    print[ P_SCFInfo ] 1
    print[ P_SCFIterInfo ] 1
    print[ P_OrbEn ] 0
    print[ P_Cartesian ] 0
end
*xyz 0 1
 O        1.2830200000    -0.4006160000    -0.5917250000 
 N        2.4155950000    -0.0448080000     0.1102790000 
 C        3.3452220000     0.8104730000    -0.5844860000 
 C        2.7934600000     2.1383040000    -0.8163700000 
 C        2.3207920000     3.2217970000    -1.0195440000 
 C        2.7822790000    -0.8569090000     1.1353830000 
 O        3.8466730000    -0.7955250000     1.7023360000 
 H        0.6547270000     0.3180160000    -0.4428670000 
 H        3.6308610000     0.3541000000    -1.5396500000 
 H        4.2340720000     0.8594890000     0.0501470000 
 H        1.9152770000     4.1904510000    -1.1954180000 
 H        1.9728240000    -1.5608630000     1.3915160000 
*
