! RI PBE def2-SVP def2-SVP/J NBO PAL2
% maxcore 2000
% output
    # printlevel mini
    print[ P_Basis ] 0
    print[ P_SCFInfo ] 1
    print[ P_SCFIterInfo ] 1
    print[ P_OrbEn ] 0
    print[ P_Cartesian ] 0
end
*xyz 0 1
 O        1.5712650000    -0.9992260000    -2.1489950000 
 N        2.7233770000    -0.6020430000    -1.4965180000 
 C        2.8705230000     0.6542920000    -1.5173760000 
 C        4.0536120000     1.2628880000    -0.8479110000 
 N        4.7989460000     2.0811820000    -1.7865620000 
 C        6.1854130000     2.3155560000    -1.4428900000 
 C        5.8256600000     1.3886170000    -2.5389180000 
 H        1.5897200000    -1.9560540000    -2.0599380000 
 H        2.1527280000     1.3016350000    -2.0234270000 
 H        4.6589890000     0.4600940000    -0.4002330000 
 H        3.7117840000     1.9173870000    -0.0372500000 
 H        6.5591160000     1.8722570000    -0.5229590000 
 H        6.5663130000     3.3067850000    -1.6630490000 
 H        5.9523770000     0.3250060000    -2.3533630000 
 H        5.9389690000     1.6927370000    -3.5734210000 
*
