! RI PBE def2-SVP def2-SVP/J NBO PAL2
% maxcore 2000
% output
    # printlevel mini
    print[ P_Basis ] 0
    print[ P_SCFInfo ] 1
    print[ P_SCFIterInfo ] 1
    print[ P_OrbEn ] 0
    print[ P_Cartesian ] 0
end
*xyz 0 1
 O        0.9093860000     0.0261530000     0.1013480000 
 N        2.2687240000    -0.0280700000     0.0513300000 
 C        2.8441960000     1.0294200000     0.5055350000 
 C        2.1168790000     2.2231410000     1.0446010000 
 O        2.6916970000     3.1915840000     1.4585250000 
 C        4.2650950000     1.0559510000     0.4883580000 
 C        5.4629580000     1.1298820000     0.4966590000 
 H        0.6439610000    -0.8223000000    -0.2669720000 
 H        1.0181200000     2.1521520000     1.0354980000 
 H        6.5259750000     1.1888870000     0.5005280000 
*
