! RI PBE def2-SVP def2-SVP/J NBO PAL2
% maxcore 2000
% output
    # printlevel mini
    print[ P_Basis ] 0
    print[ P_SCFInfo ] 1
    print[ P_SCFIterInfo ] 1
    print[ P_OrbEn ] 0
    print[ P_Cartesian ] 0
end
*xyz 0 1
 O        0.8727010000    -1.4079800000     0.9122490000 
 N        2.1835870000    -1.5401770000     1.2587660000 
 C        2.9310830000    -0.7096280000     0.6538020000 
 C        4.3909910000    -0.7043310000     0.9045820000 
 O        5.0765770000     0.1017130000     0.3108700000 
 C        4.9406800000    -1.6850610000     1.8698730000 
 C        6.2428340000    -1.7181210000     2.1273060000 
 H        0.4276370000    -2.0841820000     1.4333930000 
 H        2.5425180000     0.0175900000    -0.0584410000 
 H        4.2416180000    -2.3612770000     2.3465440000 
 H        6.9138480000    -1.0251010000     1.6308270000 
 H        6.6665360000    -2.4264350000     2.8291210000 
*
