! RI PBE def2-SVP def2-SVP/J NBO PAL2
% maxcore 2000
% output
    # printlevel mini
    print[ P_Basis ] 0
    print[ P_SCFInfo ] 1
    print[ P_SCFIterInfo ] 1
    print[ P_OrbEn ] 0
    print[ P_Cartesian ] 0
end
*xyz 0 1
 O        1.0188650000    -0.0652360000    -0.0439750000 
 N        2.3602750000     0.1394570000    -0.0200980000 
 C        3.0049320000    -0.8458600000    -0.4972880000 
 C        4.4882360000    -0.7683220000    -0.5384480000 
 O        5.1364430000     0.1708320000    -0.1480360000 
 C        5.1172910000    -1.9500620000    -1.1039950000 
 C        5.6285980000    -2.9310610000    -1.5729810000 
 H        0.6587720000     0.7422280000     0.3385590000 
 H        2.5043720000    -1.7373630000    -0.8735780000 
 H        6.0992150000    -3.7931050000    -1.9862710000 
*
