! RI PBE def2-SVP def2-SVP/J NBO PAL2
% maxcore 2000
% output
    # printlevel mini
    print[ P_Basis ] 0
    print[ P_SCFInfo ] 1
    print[ P_SCFIterInfo ] 1
    print[ P_OrbEn ] 0
    print[ P_Cartesian ] 0
end
*xyz 0 1
 O        0.8309450000     0.3310460000     0.4447160000 
 N        2.1944550000     0.3258890000     0.6320270000 
 C        2.8060550000     0.9349350000    -0.2908040000 
 C        4.3052720000     0.9996990000    -0.2348160000 
 O        4.8906320000     0.2992070000    -1.3180030000 
 C        4.7520720000     2.3903830000    -0.1838300000 
 C        5.1010190000     3.5388270000    -0.1823120000 
 H        0.5029150000    -0.1642180000     1.2009110000 
 H        2.2815690000     1.3989910000    -1.1276380000 
 H        4.6217500000     0.4813030000     0.6744050000 
 H        4.9117700000     0.8851340000    -2.0805230000 
 H        5.4183250000     4.5550950000    -0.1674340000 
*
