! RI PBE def2-SVP def2-SVP/J NBO PAL2
% maxcore 2000
% output
    # printlevel mini
    print[ P_Basis ] 0
    print[ P_SCFInfo ] 1
    print[ P_SCFIterInfo ] 1
    print[ P_OrbEn ] 0
    print[ P_Cartesian ] 0
end
*xyz 0 1
 O        0.8904540000     0.7586880000     0.4579820000 
 N        2.1959200000     0.3249530000     0.3965690000 
 C        2.5265420000    -0.0242460000    -0.7730770000 
 C        3.9212230000    -0.4731860000    -1.0181410000 
 O        3.8692820000    -1.7364700000    -1.6510620000 
 C        5.0496090000    -2.2808140000    -2.0015180000 
 C        6.2693560000    -1.7878340000    -1.8113100000 
 H        0.7721980000     0.9697440000     1.3885180000 
 H        1.8196120000     0.0101020000    -1.6030320000 
 H        4.4663330000    -0.5296400000    -0.0702960000 
 H        4.4393520000     0.2392350000    -1.6758880000 
 H        4.8874250000    -3.2352820000    -2.4906250000 
 H        6.4665330000    -0.8437240000    -1.3225310000 
 H        7.1183610000    -2.3595280000    -2.1588890000 
*
