! RI PBE def2-SVP def2-SVP/J NBO PAL2
% maxcore 2000
% output
    # printlevel mini
    print[ P_Basis ] 0
    print[ P_SCFInfo ] 1
    print[ P_SCFIterInfo ] 1
    print[ P_OrbEn ] 0
    print[ P_Cartesian ] 0
end
*xyz 0 1
 O        4.9497160000     0.5195330000     2.3990900000 
 N        4.5248030000     0.5873610000     1.0676730000 
 C        4.7697040000    -0.5044700000     0.4662180000 
 N        4.3461030000    -0.7230000000    -0.8198980000 
 C        5.1186020000    -1.5660080000    -1.6728480000 
 C        4.9998030000    -3.0472940000    -1.4864080000 
 C        4.3827420000    -2.3877910000    -2.6807720000 
 H        4.7367580000     1.3953620000     2.7289570000 
 H        5.2869300000    -1.3329170000     0.9502620000 
 H        3.9539460000     0.0984850000    -1.2584900000 
 H        6.0984330000    -1.1946710000    -1.9704720000 
 H        4.3300440000    -3.3903780000    -0.7083150000 
 H        5.8891260000    -3.6481010000    -1.6263920000 
 H        3.3044470000    -2.2921860000    -2.6908210000 
 H        4.8422330000    -2.5327240000    -3.6498930000 
*
