! RI PBE def2-SVP def2-SVP/J NBO PAL2
% maxcore 2000
% output
    # printlevel mini
    print[ P_Basis ] 0
    print[ P_SCFInfo ] 1
    print[ P_SCFIterInfo ] 1
    print[ P_OrbEn ] 0
    print[ P_Cartesian ] 0
end
*xyz 0 1
 O        1.2399060000    -0.1814350000     0.9664240000 
 N        2.3393540000    -0.6579230000     0.2523670000 
 C        3.2671420000     0.3314000000    -0.0902030000 
 N        3.0605950000     1.5799100000    -0.0799060000 
 C        4.5544050000    -0.2524900000    -0.5367670000 
 C        5.4123480000     0.5432090000    -1.4771850000 
 C        5.8292410000     0.3959160000    -0.0582190000 
 H        0.4897650000    -0.3606590000     0.3905730000 
 H        2.7487250000    -1.4258490000     0.7715060000 
 H        2.1416450000     1.7820390000     0.3080460000 
 H        4.5612060000    -1.3304160000    -0.6565640000 
 H        5.0040850000     1.5003890000    -1.7749120000 
 H        5.9542260000    -0.0037980000    -2.2382180000 
 H        5.7023210000     1.2566080000     0.5858330000 
 H        6.6624250000    -0.2543130000     0.1777160000 
*
