! RI PBE def2-SVP def2-SVP/J NBO PAL2
% maxcore 2000
% output
    # printlevel mini
    print[ P_Basis ] 0
    print[ P_SCFInfo ] 1
    print[ P_SCFIterInfo ] 1
    print[ P_OrbEn ] 0
    print[ P_Cartesian ] 0
end
*xyz 0 1
 O        1.4696050000    -1.7687130000    -0.7213340000 
 N        2.6757740000    -1.8706350000    -0.0158700000 
 C        3.5331400000    -1.0627030000    -0.4968480000 
 N        4.8245280000    -1.0286740000    -0.0531260000 
 C        5.2028030000    -1.7749170000     1.1277780000 
 C        6.6850810000    -1.7756750000     1.2932870000 
 C        7.3147330000    -1.3328680000     2.3718950000 
 H        0.9071670000    -2.3944240000    -0.2595890000 
 H        3.2872190000    -0.3860280000    -1.3153270000 
 H        5.2927930000    -0.1455050000    -0.1743320000 
 H        4.8350580000    -2.7971010000     0.9909780000 
 H        4.7129840000    -1.3879960000     2.0318820000 
 H        7.2553650000    -2.1730010000     0.4562570000 
 H        6.7680450000    -0.9276710000     3.2180240000 
 H        8.3947160000    -1.3687780000     2.4548350000 
*
