! RI PBE def2-SVP def2-SVP/J NBO PAL2
% maxcore 2000
% output
    # printlevel mini
    print[ P_Basis ] 0
    print[ P_SCFInfo ] 1
    print[ P_SCFIterInfo ] 1
    print[ P_OrbEn ] 0
    print[ P_Cartesian ] 0
end
*xyz 0 1
 O        1.2479550000     0.1768050000    -0.5138580000 
 N        2.6062420000     0.0517490000    -0.2324940000 
 C        2.8949470000    -0.8694260000     0.7656240000 
 N        2.1369490000    -1.7770270000     1.2099820000 
 C        4.3295870000    -0.7839190000     1.2451310000 
 C        4.8255430000     0.5703940000     1.4263120000 
 C        5.2194590000     1.6959970000     1.5652410000 
 H        1.1693500000    -0.1018450000    -1.4319670000 
 H        3.0023010000     0.9696810000    -0.0615130000 
 H        1.2169860000    -1.7050310000     0.7764680000 
 H        4.9653960000    -1.3067600000     0.5218570000 
 H        4.3793280000    -1.3418410000     2.1815170000 
 H        5.5793380000     2.6885320000     1.7019010000 
*
