! RI PBE def2-SVP def2-SVP/J NBO PAL2
% maxcore 2000
% output
    # printlevel mini
    print[ P_Basis ] 0
    print[ P_SCFInfo ] 1
    print[ P_SCFIterInfo ] 1
    print[ P_OrbEn ] 0
    print[ P_Cartesian ] 0
end
*xyz 0 1
 O        4.7413820000    -1.7086900000     0.6782490000 
 N        4.9728750000    -0.3364610000     0.7746160000 
 C        4.2134910000     0.2945040000    -0.0162040000 
 O        4.2139020000     1.6267230000    -0.1164200000 
 C        5.1220040000     2.3155660000     0.7054930000 
 C        6.4728350000     2.6223300000     0.1626070000 
 C        5.4283700000     3.7023490000     0.2829760000 
 H        5.3772330000    -2.0706960000     1.2997960000 
 H        3.4899950000    -0.1811660000    -0.6743720000 
 H        5.0198860000     2.0737080000     1.7571250000 
 H        6.6915120000     2.2586730000    -0.8332360000 
 H        7.3109590000     2.6171810000     0.8476980000 
 H        4.9650750000     4.0437730000    -0.6341050000 
 H        5.5365700000     4.4575170000     1.0508860000 
*
