! RI PBE def2-SVP def2-SVP/J NBO PAL2
% maxcore 2000
% output
    # printlevel mini
    print[ P_Basis ] 0
    print[ P_SCFInfo ] 1
    print[ P_SCFIterInfo ] 1
    print[ P_OrbEn ] 0
    print[ P_Cartesian ] 0
end
*xyz 0 1
 O        3.4439360000    -0.6136170000    -1.3820430000 
 N        2.7567670000     0.4846360000    -0.9003210000 
 C        1.5156430000     0.6356870000    -1.3843940000 
 O        1.0753920000    -0.0921430000    -2.2598110000 
 C        3.3040300000     1.0582160000     0.2689930000 
 C        4.5652990000     1.8532670000     0.1415180000 
 C        3.2694450000     2.5499300000     0.4014120000 
 H        2.7881120000    -0.9752810000    -2.0146610000 
 H        0.9684090000     1.4732210000    -0.9311240000 
 H        3.1792380000     0.4632540000     1.1697440000 
 H        4.9887490000     1.9341600000    -0.8507120000 
 H        5.2847020000     1.7708580000     0.9453530000 
 H        2.8354650000     3.1174680000    -0.4109480000 
 H        3.0772030000     2.9493440000     1.3885130000 
*
