! RI PBE def2-SVP def2-SVP/J NBO PAL2
% maxcore 2000
% output
    # printlevel mini
    print[ P_Basis ] 0
    print[ P_SCFInfo ] 1
    print[ P_SCFIterInfo ] 1
    print[ P_OrbEn ] 0
    print[ P_Cartesian ] 0
end
*xyz 0 1
 O        2.1647640000     3.3332180000     0.7158770000 
 N        3.3684590000     2.6578330000     0.6873320000 
 C        3.7560120000     2.2061770000    -0.5299000000 
 O        3.1471500000     2.5687890000    -1.5283060000 
 C        4.9418140000     1.3261240000    -0.5432440000 
 C        4.9762470000     0.2373690000    -1.5855940000 
 C        5.8560600000     1.4227290000    -1.7361960000 
 H        1.9438900000     3.3518300000    -0.2386700000 
 H        3.5078650000     2.1041120000     1.5173960000 
 H        5.3964850000     1.1190440000     0.4188160000 
 H        4.1109530000     0.1750210000    -2.2328860000 
 H        5.4162500000    -0.7073870000    -1.2934900000 
 H        5.5790610000     2.1559780000    -2.4825160000 
 H        6.9166830000     1.3138430000    -1.5505100000 
*
