! RI PBE def2-SVP def2-SVP/J NBO PAL2
% maxcore 2000
% output
    # printlevel mini
    print[ P_Basis ] 0
    print[ P_SCFInfo ] 1
    print[ P_SCFIterInfo ] 1
    print[ P_OrbEn ] 0
    print[ P_Cartesian ] 0
end
*xyz 0 1
 C        1.5100050000    -0.8097870000     0.4548380000 
 C        2.4336030000     0.3651150000    -0.0295230000 
 C        3.1138620000     0.2782060000     1.3234630000 
 C        4.0387630000     0.6771650000     2.2345640000 
 S        3.8578310000    -0.2881620000     3.6493340000 
 C        2.5519690000    -1.2142280000     3.0142800000 
 C        2.2869430000    -0.7737390000     1.7571210000 
 H        1.6062620000    -1.7311850000    -0.1228770000 
 H        0.4517390000    -0.5530630000     0.5333210000 
 H        1.9095910000     1.3014420000    -0.2312540000 
 H        3.0641440000     0.1233200000    -0.8873970000 
 H        4.8005130000     1.4417500000     2.2021680000 
 H        2.1030850000    -1.9897330000     3.6167730000 
*
