! RI PBE def2-SVP def2-SVP/J NBO PAL2
% maxcore 2000
% output
    # printlevel mini
    print[ P_Basis ] 0
    print[ P_SCFInfo ] 1
    print[ P_SCFIterInfo ] 1
    print[ P_OrbEn ] 0
    print[ P_Cartesian ] 0
end
*xyz 0 1
 C        1.3470290000    -0.6205030000    -0.3004150000 
 C        2.5484700000     0.3688320000    -0.0577030000 
 C        3.2553350000    -0.3842710000    -1.1657580000 
 N        4.3432490000    -0.4844140000    -1.8791290000 
 S        4.0753500000    -1.7500510000    -2.9116280000 
 C        2.4875990000    -2.1466140000    -2.3793850000 
 C        2.1913350000    -1.2659700000    -1.3857610000 
 H        0.4299890000    -0.1413970000    -0.6475520000 
 H        1.1115000000    -1.2629180000     0.5497790000 
 H        3.0121800000     0.2941800000     0.9275250000 
 H        2.3299340000     1.4167940000    -0.2704940000 
 H        1.9330510000    -2.9598770000    -2.8253690000 
*
