! RI PBE def2-SVP def2-SVP/J NBO PAL2
% maxcore 2000
% output
    # printlevel mini
    print[ P_Basis ] 0
    print[ P_SCFInfo ] 1
    print[ P_SCFIterInfo ] 1
    print[ P_OrbEn ] 0
    print[ P_Cartesian ] 0
end
*xyz 0 1
 C        1.2455540000    -0.6752010000    -0.0785250000 
 C        2.6286780000     0.0911070000    -0.0741930000 
 C        3.2714200000    -1.2616950000    -0.3174850000 
 N        4.3366410000    -1.9969160000    -0.5043890000 
 S        3.7275750000    -3.5202890000    -0.6766600000 
 N        2.1122400000    -3.2293370000    -0.5112930000 
 C        2.0528430000    -1.9368430000    -0.3212710000 
 H        0.5703200000    -0.3914330000    -0.8872560000 
 H        0.7043590000    -0.6433830000     0.8683650000 
 H        2.8841360000     0.5642000000     0.8752460000 
 H        2.7500250000     0.8162910000    -0.8803490000 
*
