! RI PBE def2-SVP def2-SVP/J NBO PAL2
% maxcore 2000
% output
    # printlevel mini
    print[ P_Basis ] 0
    print[ P_SCFInfo ] 1
    print[ P_SCFIterInfo ] 1
    print[ P_OrbEn ] 0
    print[ P_Cartesian ] 0
end
*xyz 0 1
 C        1.2961230000    -0.6327920000     0.2326130000 
 N        2.1773070000     0.5883400000     0.1194420000 
 C        3.0359980000     0.0311340000     1.1109720000 
 C        4.1087690000     0.0621150000     1.9436060000 
 S        3.9299300000    -1.3290660000     2.9625610000 
 N        2.5151750000    -1.9048140000     2.3088300000 
 C        2.2185070000    -1.0738290000     1.3566730000 
 H        1.3087000000    -1.2769080000    -0.6494840000 
 H        0.2697560000    -0.3835080000     0.5045250000 
 H        2.5774270000     0.7648230000    -0.7935540000 
 H        4.9467090000     0.7347060000     2.0466150000 
*
