! RI PBE def2-SVP def2-SVP/J NBO PAL2
% maxcore 2000
% output
    # printlevel mini
    print[ P_Basis ] 0
    print[ P_SCFInfo ] 1
    print[ P_SCFIterInfo ] 1
    print[ P_OrbEn ] 0
    print[ P_Cartesian ] 0
end
*xyz 0 1
 C        1.6193900000    -0.5599010000     0.5975020000 
 O        2.1440940000     0.5489460000    -0.2350270000 
 C        3.0187250000     0.8231490000     0.7827670000 
 N        3.9630160000     1.6591720000     1.0564440000 
 S        4.4635900000     1.1992530000     2.5815670000 
 C        3.3624680000    -0.1237560000     2.7945130000 
 C        2.6210220000    -0.1820920000     1.6656140000 
 H        1.7743310000    -1.5139090000     0.0937430000 
 H        0.5676090000    -0.3913770000     0.8283030000 
 H        3.3677460000    -0.7113750000     3.7011750000 
*
