! RI PBE def2-SVP def2-SVP/J NBO PAL2
% maxcore 2000
% output
    # printlevel mini
    print[ P_Basis ] 0
    print[ P_SCFInfo ] 1
    print[ P_SCFIterInfo ] 1
    print[ P_OrbEn ] 0
    print[ P_Cartesian ] 0
end
*xyz 0 1
 C        0.9123760000     0.0810520000     0.0575840000 
 C        2.3976070000    -0.0047720000     0.0636770000 
 C        3.3180760000     0.9928180000     0.0658220000 
 C        4.6701060000     0.5513720000     0.0718890000 
 C        4.7730780000    -0.8109750000     0.0743870000 
 N        5.8986540000    -1.5871940000     0.0799250000 
 S        3.2053190000    -1.5409550000     0.0692690000 
 H        0.6125760000     1.1307180000     0.0548630000 
 H        0.4656450000    -0.3900860000     0.9385010000 
 H        0.4727320000    -0.3926370000    -0.8255280000 
 H        3.0347700000     2.0388650000     0.0630820000 
 H        5.5273920000     1.2121170000     0.0742770000 
 H        6.8023510000    -1.1570940000     0.0839370000 
 H        5.8472190000    -2.5857190000     0.0823350000 
*
