! RI PBE def2-SVP def2-SVP/J NBO PAL2
% maxcore 2000
% output
    # printlevel mini
    print[ P_Basis ] 0
    print[ P_SCFInfo ] 1
    print[ P_SCFIterInfo ] 1
    print[ P_OrbEn ] 0
    print[ P_Cartesian ] 0
end
*xyz 0 1
 C        0.9713410000     0.0574780000     0.0241160000 
 C        2.4579800000    -0.0157840000     0.0301940000 
 C        3.3598170000     1.0004320000     0.0322090000 
 C        4.7183390000     0.5748360000     0.0382890000 
 C        4.8205170000    -0.7810530000     0.0408130000 
 O        5.9107870000    -1.5764550000     0.0463940000 
 S        3.2756260000    -1.5418090000     0.0358510000 
 H        0.6611170000     1.1039300000     0.0213560000 
 H        0.5317900000    -0.4191210000     0.9050380000 
 H        0.5388770000    -0.4216730000    -0.8589270000 
 H        3.0612940000     2.0417800000     0.0293910000 
 H        5.5709740000     1.2425910000     0.0406400000 
 H        6.6960530000    -1.0209620000     0.0488470000 
*
