! RI PBE def2-SVP def2-SVP/J NBO PAL2
% maxcore 2000
% output
    # printlevel mini
    print[ P_Basis ] 0
    print[ P_SCFInfo ] 1
    print[ P_SCFIterInfo ] 1
    print[ P_OrbEn ] 0
    print[ P_Cartesian ] 0
end
*xyz 0 1
 C        0.8168520000     0.0588470000    -0.0507110000 
 C        2.3054280000     0.0174240000    -0.0440860000 
 C        3.1916740000     1.0595170000    -0.0398150000 
 C        4.5354080000     0.6051080000    -0.0339700000 
 C        5.7385850000     1.4905730000    -0.0283370000 
 N        4.6879310000    -0.7013030000    -0.0336790000 
 S        3.2175880000    -1.4230050000    -0.0404540000 
 H        0.4690840000     1.0925220000    -0.0519750000 
 H        0.3987140000    -0.4375890000     0.8283020000 
 H        0.4065670000    -0.4371040000    -0.9336890000 
 H        2.8990450000     2.1017440000    -0.0408030000 
 H        5.4523250000     2.5426190000    -0.0293640000 
 H        6.3598070000     1.2985440000    -0.9056380000 
 H        6.3518840000     1.2981120000     0.8544290000 
*
