! RI PBE def2-SVP def2-SVP/J NBO PAL2
% maxcore 2000
% output
    # printlevel mini
    print[ P_Basis ] 0
    print[ P_SCFInfo ] 1
    print[ P_SCFIterInfo ] 1
    print[ P_OrbEn ] 0
    print[ P_Cartesian ] 0
end
*xyz 0 1
 C        0.8300920000     0.0314130000    -0.0254840000 
 C        2.3164210000    -0.0686410000    -0.0192030000 
 C        3.2200620000     0.9513060000    -0.0152590000 
 C        4.5792250000     0.5155640000    -0.0095400000 
 N        5.6335440000     1.3934710000    -0.0050990000 
 C        4.6701890000    -0.8504550000    -0.0092970000 
 S        3.1183600000    -1.5822060000    -0.0159870000 
 H        0.5290850000     1.0802190000    -0.0267440000 
 H        0.3880680000    -0.4440580000     0.8540740000 
 H        0.3955210000    -0.4440350000    -0.9087600000 
 H        2.9275310000     1.9952690000    -0.0164050000 
 H        5.4743870000     2.3802620000    -0.0046520000 
 H        6.5785150000     1.0666260000    -0.0002450000 
 H        5.5615700000    -1.4585360000    -0.0056000000 
*
