! RI PBE def2-SVP def2-SVP/J NBO PAL2
% maxcore 2000
% output
    # printlevel mini
    print[ P_Basis ] 0
    print[ P_SCFInfo ] 1
    print[ P_SCFIterInfo ] 1
    print[ P_OrbEn ] 0
    print[ P_Cartesian ] 0
end
*xyz 0 1
 C        0.9735600000     0.1161310000    -0.0669180000 
 C        2.4619060000     0.0771590000    -0.0609910000 
 C        3.3354690000     1.1232180000    -0.0572020000 
 C        4.6859650000     0.6590840000    -0.0519440000 
 N        5.7681880000     1.4846640000    -0.0474730000 
 N        4.8470570000    -0.6445640000    -0.0516510000 
 S        3.3694430000    -1.3701390000    -0.0577820000 
 H        0.6212860000     1.1483460000    -0.0682170000 
 H        0.5589340000    -0.3828230000     0.8123540000 
 H        0.5659490000    -0.3826490000    -0.9495600000 
 H        3.0390330000     2.1643940000    -0.0581070000 
 H        5.6628470000     2.4786120000    -0.0469090000 
 H        6.6871720000     1.0856550000    -0.0433990000 
*
