! RI PBE def2-SVP def2-SVP/J NBO PAL2
% maxcore 2000
% output
    # printlevel mini
    print[ P_Basis ] 0
    print[ P_SCFInfo ] 1
    print[ P_SCFIterInfo ] 1
    print[ P_OrbEn ] 0
    print[ P_Cartesian ] 0
end
*xyz 0 1
 C        0.9746490000    -0.0015440000    -0.1002640000 
 C        2.4647360000     0.0584030000    -0.0962740000 
 N        3.0593280000     1.2316030000    -0.0943080000 
 S        4.6925720000     1.0209000000    -0.0900230000 
 C        4.6197850000    -0.6956560000    -0.0907800000 
 O        5.6753210000    -1.5234390000    -0.0882420000 
 C        3.3105750000    -1.0794220000    -0.0943940000 
 H        0.5635980000     1.0069420000    -0.1010030000 
 H        0.6044210000    -0.5340730000     0.7797560000 
 H        0.6091170000    -0.5334470000    -0.9826230000 
 H        6.4985010000    -1.0266490000    -0.0858500000 
 H        2.9819970000    -2.1091160000    -0.0956040000 
*
