! RI PBE def2-SVP def2-SVP/J NBO PAL2
% maxcore 2000
% output
    # printlevel mini
    print[ P_Basis ] 0
    print[ P_SCFInfo ] 1
    print[ P_SCFIterInfo ] 1
    print[ P_OrbEn ] 0
    print[ P_Cartesian ] 0
end
*xyz 0 1
 C        0.9478710000    -0.0881460000     0.0190780000 
 C        2.4350690000    -0.0726110000     0.0232160000 
 C        3.2445290000     1.0219750000     0.0261020000 
 C        4.6493070000     0.7350240000     0.0298110000 
 O        5.6197770000     1.4446850000     0.0329500000 
 S        4.7792720000    -1.0969520000     0.0291690000 
 N        3.0985460000    -1.2466360000     0.0244150000 
 H        0.5573440000     0.9277230000     0.0184920000 
 H        0.5615980000    -0.6052680000     0.9016710000 
 H        0.5665030000    -0.6044030000    -0.8661500000 
 H        2.8899140000     2.0415800000     0.0257230000 
 H        2.6531490000    -2.1464590000     0.0226320000 
*
