! RI PBE def2-SVP def2-SVP/J NBO PAL2
% maxcore 2000
% output
    # printlevel mini
    print[ P_Basis ] 0
    print[ P_SCFInfo ] 1
    print[ P_SCFIterInfo ] 1
    print[ P_OrbEn ] 0
    print[ P_Cartesian ] 0
end
*xyz 0 1
 C        0.8203560000     0.0779630000     0.0618900000 
 C        2.3248810000     0.0489430000     0.0447810000 
 C        3.1068350000     1.0720050000     0.9002480000 
 C        4.2019750000     0.1197160000     1.4209910000 
 S        3.1502150000    -1.2705270000     0.9755730000 
 O        2.3433740000    -1.6598470000     2.1014540000 
 O        3.7880970000    -2.2699980000     0.1678700000 
 H        0.4581890000     1.0195770000    -0.3590380000 
 H        0.4470400000    -0.0137400000     1.0834060000 
 H        0.4009990000    -0.7373710000    -0.5302290000 
 H        2.7279070000     0.0016500000    -0.9703260000 
 H        2.4856150000     1.4396560000     1.7175100000 
 H        3.4879950000     1.9205900000     0.3334660000 
 H        4.4489580000     0.1674250000     2.4793460000 
 H        5.1029730000     0.1076490000     0.8080690000 
*
