! RI PBE def2-SVP def2-SVP/J NBO PAL2
% maxcore 2000
% output
    # printlevel mini
    print[ P_Basis ] 0
    print[ P_SCFInfo ] 1
    print[ P_SCFIterInfo ] 1
    print[ P_OrbEn ] 0
    print[ P_Cartesian ] 0
end
*xyz 0 1
 C        1.0058530000     0.0076300000     0.0646770000 
 C        2.4990890000     0.0770590000     0.0647190000 
 C        3.2345230000     1.2358390000     0.0618160000 
 N        2.7856240000     2.5296690000     0.0584710000 
 S        4.9306940000     0.9110420000     0.0629510000 
 C        4.6700390000    -0.7884220000     0.0673710000 
 C        3.3438290000    -1.0700340000     0.0678570000 
 H        0.5420970000     0.9964420000     0.0628440000 
 H        0.6282580000    -0.5183400000     0.9468290000 
 H        0.6283900000    -0.5216250000    -0.8155700000 
 H        1.8042010000     2.7229960000     0.0560010000 
 H        3.4201870000     3.3022160000     0.0554200000 
 H        5.5102830000    -1.4637970000     0.0693590000 
 H        2.9582240000    -2.0827740000     0.0704650000 
*
