! RI PBE def2-SVP def2-SVP/J NBO PAL2
% maxcore 2000
% output
    # printlevel mini
    print[ P_Basis ] 0
    print[ P_SCFInfo ] 1
    print[ P_SCFIterInfo ] 1
    print[ P_OrbEn ] 0
    print[ P_Cartesian ] 0
end
*xyz 0 1
 C        0.9055320000    -0.0389730000     0.1198750000 
 C        2.3562820000     0.2082170000    -0.1545560000 
 C        3.1227090000    -0.5423890000    -1.1836680000 
 N        2.7231540000     0.8135780000    -1.4310420000 
 C        3.6428870000     1.8423700000    -1.5200710000 
 N        3.1414820000     3.0197930000    -1.0959440000 
 S        5.1764310000     1.6765940000    -2.1040920000 
 H        0.7897930000    -0.8216720000     0.8738720000 
 H        0.3914080000    -0.3550500000    -0.7893690000 
 H        0.4137150000     0.8616930000     0.4968810000 
 H        2.9473260000     0.5523150000     0.6921090000 
 H        2.6124680000    -1.2874540000    -1.7854770000 
 H        4.1827580000    -0.7088850000    -1.0206930000 
 H        2.1491260000     3.1182630000    -0.9621980000 
 H        3.6961180000     3.8429990000    -1.2475270000 
*
