! RI PBE def2-SVP def2-SVP/J NBO PAL2
% maxcore 2000
% output
    # printlevel mini
    print[ P_Basis ] 0
    print[ P_SCFInfo ] 1
    print[ P_SCFIterInfo ] 1
    print[ P_OrbEn ] 0
    print[ P_Cartesian ] 0
end
*xyz 0 1
 C        0.7476120000     0.0793210000     0.0189430000 
 C        2.2249320000    -0.0909060000     0.0252860000 
 C        3.1921650000     0.8648390000     0.0274580000 
 N        4.4875200000     0.4328820000     0.0335200000 
 C        4.5512940000    -0.8606840000     0.0361720000 
 C        5.8182730000    -1.6400590000     0.0427490000 
 S        2.9975250000    -1.6291780000     0.0313390000 
 H        0.5032320000     1.1429690000     0.0159800000 
 H        0.2817060000    -0.3703200000     0.8997070000 
 H        0.2889010000    -0.3735800000    -0.8639260000 
 H        2.9888940000     1.9289280000     0.0246530000 
 H        6.6527440000    -0.9395980000     0.0449310000 
 H        5.8991650000    -2.2817690000    -0.8380630000 
 H        5.8919270000    -2.2786540000     0.9264530000 
*
