! RI PBE def2-SVP def2-SVP/J NBO PAL2
% maxcore 2000
% output
    # printlevel mini
    print[ P_Basis ] 0
    print[ P_SCFInfo ] 1
    print[ P_SCFIterInfo ] 1
    print[ P_OrbEn ] 0
    print[ P_Cartesian ] 0
end
*xyz 0 1
 C        0.8040960000     0.1848990000    -0.0776270000 
 C        2.2821580000     0.0335610000    -0.0736180000 
 C        3.2457030000     0.9845800000    -0.0741980000 
 N        4.5512750000     0.5704070000    -0.0698030000 
 C        4.6106420000    -0.7233890000    -0.0657510000 
 N        5.7693320000    -1.4260430000    -0.0609140000 
 S        3.0616980000    -1.5208790000    -0.0670210000 
 H        0.5516650000     1.2469830000    -0.0813970000 
 H        0.3403990000    -0.2654130000     0.8049080000 
 H        0.3446490000    -0.2706660000    -0.9596900000 
 H        3.0343560000     2.0473360000    -0.0779220000 
 H        6.6316120000    -0.9137860000    -0.0599390000 
 H        5.7849150000    -2.4258910000    -0.0572380000 
*
