! RI PBE def2-SVP def2-SVP/J NBO PAL2
% maxcore 2000
% output
    # printlevel mini
    print[ P_Basis ] 0
    print[ P_SCFInfo ] 1
    print[ P_SCFIterInfo ] 1
    print[ P_OrbEn ] 0
    print[ P_Cartesian ] 0
end
*xyz 0 1
 C        1.0635570000    -0.0944980000     0.1680800000 
 C        2.3523210000    -0.0077140000    -0.1466450000 
 C        3.2016190000     1.2426030000    -0.2315200000 
 N        4.4861100000     0.7015220000    -0.6097010000 
 C        4.4851150000    -0.6393260000    -0.7470810000 
 S        5.7464190000    -1.6113540000    -1.1638370000 
 N        3.2105320000    -1.0450410000    -0.4687390000 
 H        0.4973410000     0.7962070000     0.4017660000 
 H        0.5483160000    -1.0455500000     0.1997740000 
 H        3.2419870000     1.7626490000     0.7310670000 
 H        2.8118720000     1.9385370000    -0.9814710000 
 H        5.3219100000     1.2330330000    -0.7650800000 
 H        2.9626000000    -2.0174780000    -0.5064220000 
*
