! RI PBE def2-SVP def2-SVP/J NBO PAL2
% maxcore 2000
% output
    # printlevel mini
    print[ P_Basis ] 0
    print[ P_SCFInfo ] 1
    print[ P_SCFIterInfo ] 1
    print[ P_OrbEn ] 0
    print[ P_Cartesian ] 0
end
*xyz 0 1
 C        1.0285120000     0.0780770000     0.0467060000 
 C        2.5397110000     0.0542980000     0.0205080000 
 C        3.2058690000     1.2366540000     0.7335350000 
 N        4.4329660000     0.6318420000     1.2046050000 
 C        4.3024660000    -0.7137410000     1.3399170000 
 S        5.3765100000    -1.7380950000     2.0600730000 
 N        3.1167550000    -1.0511570000     0.7679850000 
 H        0.6523070000     0.9576420000    -0.4813020000 
 H        0.6620450000     0.1029910000     1.0750070000 
 H        0.6130870000    -0.8042830000    -0.4451230000 
 H        2.8888420000     0.0231740000    -1.0222580000 
 H        2.5769120000     1.5833440000     1.5653200000 
 H        3.3929340000     2.0750220000     0.0608870000 
 H        5.0909550000     1.1074170000     1.7968990000 
 H        2.9739180000    -2.0127860000     0.5106510000 
*
