! RI PBE def2-SVP def2-SVP/J NBO PAL2
% maxcore 2000
% output
    # printlevel mini
    print[ P_Basis ] 0
    print[ P_SCFInfo ] 1
    print[ P_SCFIterInfo ] 1
    print[ P_OrbEn ] 0
    print[ P_Cartesian ] 0
end
*xyz 0 1
 C        0.9252290000     0.1880780000    -0.0046370000 
 C        2.4057160000     0.0886840000     0.0014540000 
 C        3.3066560000     1.0768340000     0.0038580000 
 N        4.6218150000     0.6512900000     0.0096930000 
 C        4.8223540000    -0.7127300000     0.0121880000 
 N        5.8924420000    -1.3951930000     0.0173470000 
 S        3.2202730000    -1.4637400000     0.0066550000 
 H        0.6214100000     1.2365120000    -0.0071450000 
 H        0.4859740000    -0.2899650000     0.8757400000 
 H        0.4930860000    -0.2921210000    -0.8873580000 
 H        3.0939410000     2.1366590000     0.0016880000 
 H        5.4018360000     1.2847780000     0.0120560000 
 H        6.7220490000    -0.8077850000     0.0199690000 
*
