! RI PBE def2-SVP def2-SVP/J NBO PAL2
% maxcore 2000
% output
    # printlevel mini
    print[ P_Basis ] 0
    print[ P_SCFInfo ] 1
    print[ P_SCFIterInfo ] 1
    print[ P_OrbEn ] 0
    print[ P_Cartesian ] 0
end
*xyz 0 1
 C        0.8526370000     0.0061000000     0.0451530000 
 C        2.3347930000    -0.0785730000     0.0502380000 
 C        3.2214440000     0.9254710000     0.0522160000 
 N        4.5413760000     0.5221710000     0.0570690000 
 C        4.7756440000    -0.8273510000     0.0592230000 
 O        5.8463470000    -1.3768760000     0.0633640000 
 S        3.1702420000    -1.6140140000     0.0545820000 
 H        0.5390510000     1.0517880000     0.0430620000 
 H        0.4195820000    -0.4760460000     0.9259400000 
 H        0.4255330000    -0.4777890000    -0.8375810000 
 H        2.9905210000     1.9811450000     0.0503720000 
 H        5.3250300000     1.1538840000     0.0590710000 
*
