! RI PBE def2-SVP def2-SVP/J NBO PAL2
% maxcore 2000
% output
    # printlevel mini
    print[ P_Basis ] 0
    print[ P_SCFInfo ] 1
    print[ P_SCFIterInfo ] 1
    print[ P_OrbEn ] 0
    print[ P_Cartesian ] 0
end
*xyz 0 1
 C        0.9676940000    -0.0094140000    -0.0954590000 
 C        2.4549020000    -0.0187020000    -0.0911080000 
 C        3.2753540000     1.0547550000    -0.0872570000 
 N        4.6048450000     0.7838780000    -0.0837340000 
 S        4.9254610000    -0.8758410000    -0.0850080000 
 C        3.1803930000    -1.2737880000    -0.0906660000 
 N        2.6550350000    -2.4338050000    -0.0937700000 
 H        0.5796220000     1.0105440000    -0.0952470000 
 H        0.5746460000    -0.5355040000     0.7784300000 
 H        0.5797870000    -0.5331850000    -0.9730290000 
 H        2.9657670000     2.0921880000    -0.0867620000 
 H        5.3400790000     1.4640770000    -0.0805900000 
 H        3.3319070000    -3.1903130000    -0.0927980000 
*
