! RI PBE def2-SVP def2-SVP/J NBO PAL2
% maxcore 2000
% output
    # printlevel mini
    print[ P_Basis ] 0
    print[ P_SCFInfo ] 1
    print[ P_SCFIterInfo ] 1
    print[ P_OrbEn ] 0
    print[ P_Cartesian ] 0
end
*xyz 0 1
 C        0.9599620000     0.1194900000     0.0565940000 
 C        2.4489830000     0.0805520000     0.0612670000 
 C        3.2950270000     1.1412710000     0.0637110000 
 N        4.6115240000     0.8485260000     0.0679360000 
 S        4.9268790000    -0.8052520000     0.0692670000 
 C        3.1443270000    -1.1846060000     0.0636860000 
 O        2.7171150000    -2.3113400000     0.0625980000 
 H        0.5930130000     1.1470970000     0.0552320000 
 H        0.5532240000    -0.3917990000     0.9327430000 
 H        0.5587260000    -0.3921610000    -0.8218760000 
 H        3.0033330000     2.1841340000     0.0625890000 
 H        5.3502870000     1.5263170000     0.0701540000 
*
