! RI PBE def2-SVP def2-SVP/J NBO PAL2
% maxcore 2000
% output
    # printlevel mini
    print[ P_Basis ] 0
    print[ P_SCFInfo ] 1
    print[ P_SCFIterInfo ] 1
    print[ P_OrbEn ] 0
    print[ P_Cartesian ] 0
end
*xyz 0 1
 C        0.9679290000    -0.0230750000    -0.0402600000 
 C        2.4568720000     0.0229340000    -0.0451900000 
 C        3.2989370000     1.1085840000    -0.0425800000 
 C        2.9061550000     2.5495470000    -0.0339240000 
 C        4.6478200000     0.6641370000    -0.0495290000 
 N        4.8614860000    -0.6273550000    -0.0567250000 
 S        3.4130270000    -1.3929680000    -0.0556990000 
 H        0.5485650000     0.9832520000    -0.0343420000 
 H        0.5873070000    -0.5473630000     0.8398190000 
 H        0.5812290000    -0.5395240000    -0.9223170000 
 H        1.8236170000     2.6772180000    -0.0289710000 
 H        3.2952250000     3.0698570000    -0.9133430000 
 H        3.3022460000     3.0611700000     0.8474500000 
 H        5.5058730000     1.3302860000    -0.0490980000 
*
