! RI PBE def2-SVP def2-SVP/J NBO PAL2
% maxcore 2000
% output
    # printlevel mini
    print[ P_Basis ] 0
    print[ P_SCFInfo ] 1
    print[ P_SCFIterInfo ] 1
    print[ P_OrbEn ] 0
    print[ P_Cartesian ] 0
end
*xyz 0 1
 C        0.9961970000    -0.0489380000     0.0856730000 
 C        2.4879280000     0.0106720000     0.0864110000 
 C        3.2512250000     1.1512930000     0.0884340000 
 O        2.8737740000     2.4391520000     0.0901790000 
 S        4.9126380000     0.7392560000     0.0885480000 
 N        4.6492290000    -0.8841540000     0.0860270000 
 C        3.3587030000    -1.1066340000     0.0851340000 
 H        0.5400060000     0.9457520000     0.0869420000 
 H        0.6142860000    -0.5705830000     0.9670230000 
 H        0.6150560000    -0.5679790000    -0.7975450000 
 H        1.9114930000     2.4852140000     0.0898280000 
 H        3.0160850000    -2.1376500000     0.0834570000 
*
