! RI PBE def2-SVP def2-SVP/J NBO PAL2
% maxcore 2000
% output
    # printlevel mini
    print[ P_Basis ] 0
    print[ P_SCFInfo ] 1
    print[ P_SCFIterInfo ] 1
    print[ P_OrbEn ] 0
    print[ P_Cartesian ] 0
end
*xyz 0 1
 C        1.0175050000    -0.0027070000    -0.0946530000 
 C        2.5099310000     0.0439930000    -0.0891320000 
 C        3.2478850000     1.1918360000    -0.0832500000 
 S        4.9249390000     0.8815760000    -0.0780550000 
 C        4.6653880000    -0.8040690000    -0.0837150000 
 C        3.3385100000    -1.1226810000    -0.0894120000 
 C        2.8027500000    -2.5164080000    -0.0952620000 
 H        0.5911630000     1.0010480000    -0.0934190000 
 H        0.6319260000    -0.5326040000     0.7817690000 
 H        0.6382800000    -0.5277450000    -0.9767540000 
 H        2.8817770000     2.2079950000    -0.0817280000 
 H        5.5042110000    -1.4845040000    -0.0825860000 
 H        3.6100170000    -3.2496270000    -0.0943610000 
 H        2.1819610000    -2.7012360000    -0.9773270000 
 H        2.1755350000    -2.7061470000     0.7811950000 
*
