! RI PBE def2-SVP def2-SVP/J NBO PAL2
% maxcore 2000
% output
    # printlevel mini
    print[ P_Basis ] 0
    print[ P_SCFInfo ] 1
    print[ P_SCFIterInfo ] 1
    print[ P_OrbEn ] 0
    print[ P_Cartesian ] 0
end
*xyz 0 1
 C        0.9607320000     0.1427440000     0.0219520000 
 C        2.4473780000     0.0471860000     0.0287250000 
 C        3.3598200000     1.0621870000     0.0331760000 
 C        4.7154080000     0.6314190000     0.0392650000 
 C        5.8902770000     1.5596520000     0.0449060000 
 C        4.7985900000    -0.7311920000     0.0392670000 
 S        3.2566380000    -1.4656160000     0.0320120000 
 H        0.6593970000     1.1914150000     0.0208370000 
 H        0.5178410000    -0.3324810000     0.9013150000 
 H        0.5259020000    -0.3320390000    -0.8616630000 
 H        3.0688000000     2.1065600000     0.0321290000 
 H        5.5633400000     2.6005240000     0.0435910000 
 H        6.5236150000     1.4103750000    -0.8331760000 
 H        6.5154250000     1.4100320000     0.9287810000 
 H        5.6892370000    -1.3423560000     0.0431720000 
*
