! RI PBE def2-SVP def2-SVP/J NBO PAL2
% maxcore 2000
% output
    # printlevel mini
    print[ P_Basis ] 0
    print[ P_SCFInfo ] 1
    print[ P_SCFIterInfo ] 1
    print[ P_OrbEn ] 0
    print[ P_Cartesian ] 0
end
*xyz 0 1
 C        0.9762680000    -0.0714450000    -0.0836190000 
 C        2.4573580000     0.0746500000    -0.0790280000 
 C        3.1367110000     1.2483220000    -0.0803000000 
 S        4.8366300000     0.9467040000    -0.0735580000 
 C        4.4945590000    -0.7579420000    -0.0695770000 
 N        5.4847570000    -1.6815830000    -0.0634480000 
 N        3.2331640000    -1.0590490000    -0.0729380000 
 H        0.4823110000     0.9004150000    -0.0881690000 
 H        0.6453450000    -0.6288610000     0.7965760000 
 H        0.6513120000    -0.6340590000    -0.9627310000 
 H        2.7504600000     2.2549530000    -0.0846730000 
 H        6.4510480000    -1.4237630000    -0.0603660000 
 H        5.2272970000    -2.6508430000    -0.0609600000 
*
