! RI PBE def2-SVP def2-SVP/J NBO PAL2
% maxcore 2000
% output
    # printlevel mini
    print[ P_Basis ] 0
    print[ P_SCFInfo ] 1
    print[ P_SCFIterInfo ] 1
    print[ P_OrbEn ] 0
    print[ P_Cartesian ] 0
end
*xyz 0 1
 C        0.9103180000    -0.0622900000     0.0534880000 
 C        2.3852270000     0.1066960000     0.0589140000 
 C        3.0845680000     1.2506830000     0.0598980000 
 S        4.8028740000     0.9519850000     0.0669510000 
 C        4.5540090000    -0.8062240000     0.0686090000 
 N        5.3929060000    -1.7587590000     0.0732530000 
 N        3.1935950000    -1.0097210000     0.0636820000 
 H        0.4187280000     0.9094860000     0.0501890000 
 H        0.5731650000    -0.6139720000     0.9364570000 
 H        0.5799600000    -0.6165320000    -0.8304470000 
 H        2.6888660000     2.2529620000     0.0568840000 
 H        6.3515370000    -1.4323670000     0.0764550000 
 H        2.8479570000    -1.9549380000     0.0637660000 
*
