! RI PBE def2-SVP def2-SVP/J NBO PAL2
% maxcore 2000
% output
    # printlevel mini
    print[ P_Basis ] 0
    print[ P_SCFInfo ] 1
    print[ P_SCFIterInfo ] 1
    print[ P_OrbEn ] 0
    print[ P_Cartesian ] 0
end
*xyz 0 1
 C        1.0274630000     0.0630650000     0.0277510000 
 C        2.5064900000     0.1894860000     0.0317620000 
 C        3.2430240000     1.3107880000     0.0326060000 
 S        4.9466050000     0.9731220000     0.0377330000 
 C        4.6511980000    -0.7853500000     0.0388320000 
 O        5.4803360000    -1.6578840000     0.0420900000 
 N        3.2877680000    -0.9503330000     0.0351880000 
 H        0.5666940000     1.0500250000     0.0254000000 
 H        0.6729890000    -0.4770970000     0.9111020000 
 H        0.6779440000    -0.4789950000    -0.8564100000 
 H        2.8704760000     2.3224100000     0.0304600000 
 H        2.9132130000    -1.8854350000     0.0351550000 
*
