! RI PBE def2-SVP def2-SVP/J NBO PAL2
% maxcore 2000
% output
    # printlevel mini
    print[ P_Basis ] 0
    print[ P_SCFInfo ] 1
    print[ P_SCFIterInfo ] 1
    print[ P_OrbEn ] 0
    print[ P_Cartesian ] 0
end
*xyz 0 1
 C        1.0266460000     0.0901520000    -0.0135800000 
 C        2.5102170000     0.1559190000    -0.0093140000 
 C        3.2851760000     1.2554170000    -0.0077450000 
 S        4.9688340000     0.9244820000    -0.0030250000 
 N        4.6381590000    -0.7194200000    -0.0028820000 
 C        3.3026820000    -1.0781650000    -0.0061300000 
 O        2.9091940000    -2.2274600000    -0.0067650000 
 H        0.5789340000     1.0842240000    -0.0154590000 
 H        0.6680560000    -0.4582890000     0.8613750000 
 H        0.6731090000    -0.4593190000    -0.8899470000 
 H        2.9651230000     2.2881930000    -0.0092990000 
 H        5.3720710000    -1.4080420000    -0.0005290000 
*
