! RI PBE def2-SVP def2-SVP/J NBO PAL2
% maxcore 2000
% output
    # printlevel mini
    print[ P_Basis ] 0
    print[ P_SCFInfo ] 1
    print[ P_SCFIterInfo ] 1
    print[ P_OrbEn ] 0
    print[ P_Cartesian ] 0
end
*xyz 0 1
 C        0.8720730000    -0.0574110000     0.1310980000 
 C        2.3841160000    -0.0759550000     0.0709770000 
 C        3.0962940000     1.0993110000     0.7853230000 
 S        4.3299740000    -0.0520210000     1.3987980000 
 O        4.5271550000    -0.0053590000     2.8182810000 
 O        5.4592740000    -0.0949120000     0.5113180000 
 C        3.0711840000    -1.2153580000     0.8639840000 
 H        0.4691180000     0.8122400000    -0.3931450000 
 H        0.5230810000    -0.0179440000     1.1666680000 
 H        0.4499520000    -0.9520500000    -0.3324950000 
 H        2.7212440000    -0.1149360000    -0.9665930000 
 H        2.5218740000     1.4998610000     1.6222050000 
 H        3.4958870000     1.8998530000     0.1659900000 
 H        2.4887830000    -1.5464720000     1.7253420000 
 H        3.4536120000    -2.0640460000     0.3003570000 
*
