! RI PBE def2-SVP def2-SVP/J NBO PAL2
% maxcore 2000
% output
    # printlevel mini
    print[ P_Basis ] 0
    print[ P_SCFInfo ] 1
    print[ P_SCFIterInfo ] 1
    print[ P_OrbEn ] 0
    print[ P_Cartesian ] 0
end
*xyz 0 1
 C        1.0054190000    -0.0075280000     0.3352230000 
 C        2.4182860000     0.1421290000    -0.1831580000 
 C        3.2162830000     1.2944540000     0.4644100000 
 S        4.1137250000     0.0491540000     1.3860870000 
 O        3.5744350000    -0.1348470000     2.7036200000 
 O        5.5301520000     0.0758030000     1.2181190000 
 N        3.3546290000    -0.9230260000     0.2586780000 
 H        0.3885010000     0.8326050000     0.0076080000 
 H        0.9937610000    -0.0440620000     1.4271100000 
 H        0.5495840000    -0.9235860000    -0.0486650000 
 H        2.4267540000     0.2054500000    -1.2733700000 
 H        2.6520000000     1.9744050000     1.0984480000 
 H        3.8766530000     1.8307300000    -0.2138870000 
 H        2.9616070000    -1.7916900000     0.6020770000 
*
