! RI PBE def2-SVP def2-SVP/J NBO PAL2
% maxcore 2000
% output
    # printlevel mini
    print[ P_Basis ] 0
    print[ P_SCFInfo ] 1
    print[ P_SCFIterInfo ] 1
    print[ P_OrbEn ] 0
    print[ P_Cartesian ] 0
end
*xyz 0 1
 C        0.9787980000    -0.0795600000     0.1442030000 
 C        2.4268830000     0.1607800000    -0.1733700000 
 C        3.1306330000     1.2625560000     0.6305340000 
 S        4.2005530000    -0.0321910000     1.2345740000 
 O        4.0013500000    -0.3490420000     2.6083360000 
 O        5.5180590000     0.0251460000     0.6977600000 
 O        3.2557810000    -0.9500320000     0.3069330000 
 H        0.3757100000     0.7604920000    -0.2090840000 
 H        0.8339720000    -0.1904950000     1.2206290000 
 H        0.6273940000    -0.9867110000    -0.3496880000 
 H        2.5990510000     0.2601410000    -1.2464640000 
 H        2.5361160000     1.7100730000     1.4243270000 
 H        3.6672970000     2.0124550000     0.0549110000 
*
