! RI PBE def2-SVP def2-SVP/J NBO PAL2
% maxcore 2000
% output
    # printlevel mini
    print[ P_Basis ] 0
    print[ P_SCFInfo ] 1
    print[ P_SCFIterInfo ] 1
    print[ P_OrbEn ] 0
    print[ P_Cartesian ] 0
end
*xyz 0 1
 C        0.9059670000     0.0630160000    -0.0501750000 
 C        2.3855500000    -0.0801400000    -0.0544120000 
 N        3.2294520000     0.8924630000    -0.0584240000 
 C        4.5267880000     0.4604890000    -0.0616760000 
 C        4.7009470000    -0.8944150000    -0.0601560000 
 N        5.8581540000    -1.6190060000    -0.0625480000 
 S        3.1498330000    -1.6542400000    -0.0543450000 
 H        0.6693150000     1.1268770000    -0.0509610000 
 H        0.4554090000    -0.3946470000     0.8347470000 
 H        0.4501140000    -0.3971240000    -0.9310920000 
 H        5.3333330000     1.1820510000    -0.0651870000 
 H        6.7415920000    -1.1479000000    -0.0659960000 
 H        5.8532450000    -2.6186140000    -0.0609950000 
*
