! RI PBE def2-SVP def2-SVP/J NBO PAL2
% maxcore 2000
% output
    # printlevel mini
    print[ P_Basis ] 0
    print[ P_SCFInfo ] 1
    print[ P_SCFIterInfo ] 1
    print[ P_OrbEn ] 0
    print[ P_Cartesian ] 0
end
*xyz 0 1
 C        0.9440870000     0.0089360000    -0.0125970000 
 C        2.4272940000    -0.1144870000    -0.0102860000 
 N        3.2320870000     0.9057560000    -0.0050480000 
 C        4.5423530000     0.5115430000    -0.0040140000 
 N        5.4883400000     1.4938080000     0.0012510000 
 C        4.7442010000    -0.8425470000    -0.0085500000 
 S        3.2251970000    -1.6359460000    -0.0143390000 
 H        0.6831710000     1.0665280000    -0.0095380000 
 H        0.5022860000    -0.4649700000     0.8671220000 
 H        0.5055130000    -0.4590880000    -0.8970630000 
 H        5.1865570000     2.4480850000     0.0048380000 
 H        6.4650580000     1.2827490000     0.0030320000 
 H        5.6718760000    -1.3914580000    -0.0088170000 
*
