! RI PBE def2-SVP def2-SVP/J NBO PAL2
% maxcore 2000
% output
    # printlevel mini
    print[ P_Basis ] 0
    print[ P_SCFInfo ] 1
    print[ P_SCFIterInfo ] 1
    print[ P_OrbEn ] 0
    print[ P_Cartesian ] 0
end
*xyz 0 1
 C        0.9461800000    -0.1468880000    -0.0424300000 
 C        2.4318330000    -0.0273420000    -0.0423740000 
 C        3.1480370000     1.1436550000    -0.0446600000 
 N        2.6898720000     2.4326920000    -0.0469370000 
 S        4.8352860000     0.7903190000    -0.0433420000 
 C        4.4588530000    -0.8984160000    -0.0398410000 
 N        3.1989000000    -1.1617990000    -0.0396810000 
 H        0.4526200000     0.8271050000    -0.0425580000 
 H        0.5991530000    -0.6932070000     0.8386510000 
 H        0.5989910000    -0.6937300000    -0.9231450000 
 H        1.7060640000     2.6147500000    -0.0549020000 
 H        3.3159250000     3.2118580000    -0.0542610000 
 H        5.2480850000    -1.6372860000    -0.0378180000 
*
