! RI PBE def2-SVP def2-SVP/J NBO PAL2
% maxcore 2000
% output
    # printlevel mini
    print[ P_Basis ] 0
    print[ P_SCFInfo ] 1
    print[ P_SCFIterInfo ] 1
    print[ P_OrbEn ] 0
    print[ P_Cartesian ] 0
end
*xyz 0 1
 C        0.9635910000    -0.0822020000    -0.0938870000 
 C        2.4484630000     0.0374770000    -0.0937120000 
 C        3.1649420000     1.1999450000    -0.0966830000 
 O        2.7521700000     2.4834940000    -0.1003540000 
 S        4.8535320000     0.8741320000    -0.0952200000 
 C        4.4821910000    -0.8084710000    -0.0907080000 
 N        3.2235850000    -1.0926500000    -0.0903520000 
 H        0.4646160000     0.8909300000    -0.0959850000 
 H        0.6182400000    -0.6260730000     0.7886830000 
 H        0.6186610000    -0.6297080000    -0.9743790000 
 H        1.7896170000     2.4964010000    -0.1012070000 
 H        5.2739820000    -1.5454650000    -0.0883850000 
*
