! RI PBE def2-SVP def2-SVP/J NBO PAL2
% maxcore 2000
% output
    # printlevel mini
    print[ P_Basis ] 0
    print[ P_SCFInfo ] 1
    print[ P_SCFIterInfo ] 1
    print[ P_OrbEn ] 0
    print[ P_Cartesian ] 0
end
*xyz 0 1
 C        1.0625380000     0.3056650000     0.0429060000 
 C        2.5113990000    -0.0190440000     0.0367430000 
 N        3.4472440000     0.8759070000     0.0326170000 
 N        4.6942520000     0.3555330000     0.0273510000 
 C        4.7163750000    -0.9391750000     0.0274380000 
 C        5.9662840000    -1.7406580000     0.0222130000 
 S        3.1327470000    -1.6321210000     0.0342470000 
 H        0.9544450000     1.3898340000     0.0432310000 
 H        0.5669900000    -0.1002090000     0.9277640000 
 H        0.5594310000    -0.1004340000    -0.8375730000 
 H        6.8129460000    -1.0549050000     0.0185100000 
 H        6.0251590000    -2.3812700000    -0.8606370000 
 H        6.0326910000    -2.3810340000     0.9047000000 
*
