! RI PBE def2-SVP def2-SVP/J NBO PAL2
% maxcore 2000
% output
    # printlevel mini
    print[ P_Basis ] 0
    print[ P_SCFInfo ] 1
    print[ P_SCFIterInfo ] 1
    print[ P_OrbEn ] 0
    print[ P_Cartesian ] 0
end
*xyz 0 1
 C        1.0272640000     0.2327370000    -0.0460500000 
 C        2.5143870000     0.1663770000    -0.0482570000 
 C        3.4331060000     1.1881210000    -0.0491130000 
 C        3.1745210000     2.6544480000    -0.0480370000 
 N        4.7278750000     0.7559390000    -0.0511660000 
 N        4.8761340000    -0.5061530000    -0.0520310000 
 S        3.3898760000    -1.2845960000    -0.0502420000 
 H        0.6875200000     1.2684220000    -0.0452090000 
 H        0.6080480000    -0.2579450000     0.8354810000 
 H        0.6054580000    -0.2573620000    -0.9266670000 
 H        2.1083210000     2.8781620000    -0.0462550000 
 H        3.6214060000     3.1212320000    -0.9285930000 
 H        3.6241760000     3.1204160000     0.8315390000 
*
