! RI PBE def2-SVP def2-SVP/J NBO PAL2
% maxcore 2000
% output
    # printlevel mini
    print[ P_Basis ] 0
    print[ P_SCFInfo ] 1
    print[ P_SCFIterInfo ] 1
    print[ P_OrbEn ] 0
    print[ P_Cartesian ] 0
end
*xyz 0 1
 C        1.0235400000    -0.0699400000     0.0584160000 
 C        2.5126590000    -0.0194860000     0.0587510000 
 N        3.1443270000     1.1311390000     0.0581270000 
 S        4.7588340000     0.8865550000     0.0587010000 
 C        4.6653930000    -0.8115540000     0.0598260000 
 C        3.3460200000    -1.1838000000     0.0597490000 
 N        2.8400290000    -2.4573020000     0.0605020000 
 H        0.6196360000     0.9410690000     0.0576290000 
 H        0.6435340000    -0.5932870000     0.9424490000 
 H        0.6439720000    -0.5944860000    -0.8250950000 
 H        5.5396260000    -1.4455770000     0.0604770000 
 H        3.4417850000    -3.2559140000     0.0610970000 
 H        1.8518540000    -2.6111160000     0.0602430000 
*
