! RI PBE def2-SVP def2-SVP/J NBO PAL2
% maxcore 2000
% output
    # printlevel mini
    print[ P_Basis ] 0
    print[ P_SCFInfo ] 1
    print[ P_SCFIterInfo ] 1
    print[ P_OrbEn ] 0
    print[ P_Cartesian ] 0
end
*xyz 0 1
 C        1.1676130000     0.0870780000    -0.0810800000 
 C        2.6562310000     0.0595800000    -0.0838630000 
 N        3.3670740000     1.1664010000    -0.0911970000 
 S        4.9327130000     0.7400050000    -0.0919930000 
 N        4.7513820000    -0.8724710000    -0.0829940000 
 C        3.4603640000    -1.1247840000    -0.0791020000 
 C        2.9366910000    -2.5184980000    -0.0706000000 
 H        0.8115170000     1.1157660000    -0.0858570000 
 H        0.7677600000    -0.4189230000     0.8023140000 
 H        0.7642980000    -0.4282910000    -0.9574570000 
 H        3.7614340000    -3.2290050000    -0.0684470000 
 H        2.3121020000    -2.7080300000    -0.9482520000 
 H        2.3156200000    -2.6986170000     0.8115190000 
*
