! RI PBE def2-SVP def2-SVP/J NBO PAL2
% maxcore 2000
% output
    # printlevel mini
    print[ P_Basis ] 0
    print[ P_SCFInfo ] 1
    print[ P_SCFIterInfo ] 1
    print[ P_OrbEn ] 0
    print[ P_Cartesian ] 0
end
*xyz 0 1
 C        0.9137530000     0.0576480000     0.1118320000 
 C        2.3958410000    -0.1087910000     0.0279310000 
 O        3.1224250000     0.8688420000     0.7745440000 
 C        4.1275840000     0.0827410000     1.3916000000 
 S        3.1907330000    -1.4300810000     1.0185070000 
 O        2.3681890000    -1.8300510000     2.1231050000 
 O        3.9095590000    -2.4045140000     0.2533420000 
 H        0.6325190000     1.0290730000    -0.3013980000 
 H        0.5788130000    -0.0023660000     1.1475560000 
 H        0.4149430000    -0.7186560000    -0.4717270000 
 H        2.7687370000    -0.1850570000    -1.0002190000 
 H        4.2447990000     0.3147320000     2.4501120000 
 H        5.0813940000     0.0934810000     0.8561150000 
*
