! RI PBE def2-SVP def2-SVP/J NBO PAL2
% maxcore 2000
% output
    # printlevel mini
    print[ P_Basis ] 0
    print[ P_SCFInfo ] 1
    print[ P_SCFIterInfo ] 1
    print[ P_OrbEn ] 0
    print[ P_Cartesian ] 0
end
*xyz 0 1
 C        0.8526890000     0.1178970000    -0.0653430000 
 C        2.3418870000     0.0820330000    -0.0698200000 
 C        3.2228270000     1.1299630000    -0.0690350000 
 O        2.9105610000     2.4508980000    -0.0639090000 
 C        4.5862360000     0.7337270000    -0.0742940000 
 C        4.7224740000    -0.6177970000    -0.0789910000 
 S        3.2090740000    -1.4046360000    -0.0770960000 
 H        0.4808080000     1.1467210000    -0.0618010000 
 H        0.4322730000    -0.3712250000     0.8176340000 
 H        0.4271170000    -0.3669440000    -0.9482050000 
 H        1.9549390000     2.5526240000    -0.0605050000 
 H        5.4068410000     1.4379780000    -0.0744470000 
 H        5.6347840000    -1.1938290000    -0.0834870000 
*
