! RI PBE def2-SVP def2-SVP/J NBO PAL2
% maxcore 2000
% output
    # printlevel mini
    print[ P_Basis ] 0
    print[ P_SCFInfo ] 1
    print[ P_SCFIterInfo ] 1
    print[ P_OrbEn ] 0
    print[ P_Cartesian ] 0
end
*xyz 0 1
 C        0.7850850000     0.0194030000    -0.0029640000 
 C        2.2736600000     0.0232970000    -0.0078920000 
 C        3.1286960000     1.0956390000    -0.0066960000 
 O        2.8143970000     2.4129860000    -0.0007110000 
 C        4.4820520000     0.6753460000    -0.0127690000 
 N        4.6826340000    -0.6178340000    -0.0182750000 
 S        3.2381080000    -1.3880930000    -0.0163910000 
 H        0.3843680000     1.0372680000     0.0018440000 
 H        0.3838800000    -0.4853200000     0.8793150000 
 H        0.3780310000    -0.4792600000    -0.8860080000 
 H        1.8588860000     2.5177660000     0.0029720000 
 H        5.3277120000     1.3540020000    -0.0130250000 
*
