! RI PBE def2-SVP def2-SVP/J NBO PAL2
% maxcore 2000
% output
    # printlevel mini
    print[ P_Basis ] 0
    print[ P_SCFInfo ] 1
    print[ P_SCFIterInfo ] 1
    print[ P_OrbEn ] 0
    print[ P_Cartesian ] 0
end
*xyz 0 1
 C        0.7796350000     0.0426070000    -0.1297790000 
 C        2.0236610000     0.0131290000     0.3454020000 
 C        2.7421500000    -1.1406560000     0.8411070000 
 C        4.0253690000    -1.1546860000     1.3282860000 
 C        4.4572160000    -2.4352610000     1.7404480000 
 C        3.4966700000    -3.3861000000     1.5628880000 
 S        2.0715200000    -2.7262010000     0.8963190000 
 H        0.3383350000     0.9681170000    -0.4764560000 
 H        0.1631280000    -0.8483220000    -0.1890010000 
 H        2.5949080000     0.9379040000     0.3809720000 
 H        4.6338730000    -0.2606550000     1.3840690000 
 H        5.4360550000    -2.6448950000     2.1507620000 
 H        3.5505680000    -4.4403790000     1.7883830000 
*
