! RI PBE def2-SVP def2-SVP/J NBO PAL2
% maxcore 2000
% output
    # printlevel mini
    print[ P_Basis ] 0
    print[ P_SCFInfo ] 1
    print[ P_SCFIterInfo ] 1
    print[ P_OrbEn ] 0
    print[ P_Cartesian ] 0
end
*xyz 0 1
 C        3.5451190000     0.1058520000    -1.2342330000 
 C        2.5582140000    -0.0435880000    -0.0804550000 
 C        2.9430510000    -1.0906810000     0.9131800000 
 C        3.3652550000    -0.9195200000     2.2007080000 
 C        3.6704240000    -2.1354900000     2.8627590000 
 C        3.4751160000    -3.2229880000     2.0674930000 
 S        2.9220260000    -2.7642370000     0.5183890000 
 H        3.2260420000     0.8969690000    -1.9168600000 
 H        3.6254740000    -0.8206630000    -1.8071500000 
 H        4.5418760000     0.3541680000    -0.8634890000 
 H        1.5614470000    -0.2575570000    -0.4805580000 
 H        2.4739620000     0.9049450000     0.4577100000 
 H        3.4514740000     0.0576120000     2.6602520000 
 H        4.0176780000    -2.1994430000     3.8856920000 
 H        3.6235420000    -4.2647780000     2.3071720000 
*
