! RI PBE def2-SVP def2-SVP/J NBO PAL2
% maxcore 2000
% output
    # printlevel mini
    print[ P_Basis ] 0
    print[ P_SCFInfo ] 1
    print[ P_SCFIterInfo ] 1
    print[ P_OrbEn ] 0
    print[ P_Cartesian ] 0
end
*xyz 0 1
 C        2.8072790000    -1.3398840000     0.3595370000 
 C        2.4208140000    -0.0881340000     0.1244880000 
 C        3.0938140000     0.8713400000    -0.7286090000 
 C        2.7066020000     2.1667570000    -0.9800900000 
 C        3.6065790000     2.8005410000    -1.8600410000 
 N        4.6230000000     2.0819020000    -2.2773290000 
 S        4.5313070000     0.5872280000    -1.6132400000 
 H        2.2365590000    -1.9850220000     1.0152080000 
 H        3.6996540000    -1.7632730000    -0.0897520000 
 H        1.5180670000     0.2855550000     0.6010140000 
 H        1.8260500000     2.6286170000    -0.5538930000 
 H        3.5173750000     3.8235640000    -2.2090840000 
*
