! RI PBE def2-SVP def2-SVP/J NBO PAL2
% maxcore 2000
% output
    # printlevel mini
    print[ P_Basis ] 0
    print[ P_SCFInfo ] 1
    print[ P_SCFIterInfo ] 1
    print[ P_OrbEn ] 0
    print[ P_Cartesian ] 0
end
*xyz 0 1
 C        0.9825800000    -0.0146060000     0.0166420000 
 C        2.1852370000    -0.0045640000     0.0195340000 
 C        3.5921450000    -0.0173660000     0.0228700000 
 C        4.4693540000     1.0432530000     0.0241450000 
 C        5.7983310000     0.5795420000     0.0276390000 
 N        5.9675840000    -0.7244160000     0.0290200000 
 S        4.5140520000    -1.4612430000     0.0261200000 
 H       -0.0819500000    -0.0179500000     0.0140370000 
 H        4.1654600000     2.0801420000     0.0226470000 
 H        6.6752170000     1.2174090000     0.0292370000 
*
