! RI PBE def2-SVP def2-SVP/J NBO PAL2
% maxcore 2000
% output
    # printlevel mini
    print[ P_Basis ] 0
    print[ P_SCFInfo ] 1
    print[ P_SCFIterInfo ] 1
    print[ P_OrbEn ] 0
    print[ P_Cartesian ] 0
end
*xyz 0 1
 C        0.8506450000     0.0230300000     0.2211850000 
 C        2.3677170000     0.0596020000     0.0528090000 
 C        2.7897420000     0.2794280000    -1.3631560000 
 C        2.9931780000     1.4609400000    -2.0277380000 
 C        3.3406220000     1.2272790000    -3.3755580000 
 N        3.4111870000    -0.0271070000    -3.7580390000 
 S        3.0527880000    -0.9830480000    -2.4775190000 
 H        0.5838110000    -0.1282610000     1.2694290000 
 H        0.4115130000    -0.7884870000    -0.3626330000 
 H        0.3985870000     0.9581740000    -0.1150870000 
 H        2.8000310000    -0.8727430000     0.4269530000 
 H        2.7874210000     0.8622620000     0.6658380000 
 H        2.9027730000     2.4394080000    -1.5743850000 
 H        3.5545060000     2.0026230000    -4.1037290000 
*
