! RI PBE def2-SVP def2-SVP/J NBO PAL2
% maxcore 2000
% output
    # printlevel mini
    print[ P_Basis ] 0
    print[ P_SCFInfo ] 1
    print[ P_SCFIterInfo ] 1
    print[ P_OrbEn ] 0
    print[ P_Cartesian ] 0
end
*xyz 0 1
 C        1.8197820000    -0.7170340000     1.0090360000 
 C        2.3568430000     0.0991540000     0.1047730000 
 C        3.0019170000    -0.2957520000    -1.1386000000 
 C        3.5323520000     0.6131750000    -2.0193600000 
 S        4.2213080000    -0.1320830000    -3.3844060000 
 C        3.8157430000    -1.6890220000    -2.8099500000 
 C        3.1750220000    -1.6302010000    -1.6133000000 
 H        1.3597830000    -0.3265130000     1.9081430000 
 H        1.8184120000    -1.7945320000     0.8883900000 
 H        2.3244460000     1.1704740000     0.2874820000 
 H        3.5446690000     1.6884620000    -1.9187750000 
 H        4.0713780000    -2.5657620000    -3.3853890000 
 H        2.8353460000    -2.5100860000    -1.0835530000 
*
