! RI PBE def2-SVP def2-SVP/J NBO PAL2
% maxcore 2000
% output
    # printlevel mini
    print[ P_Basis ] 0
    print[ P_SCFInfo ] 1
    print[ P_SCFIterInfo ] 1
    print[ P_OrbEn ] 0
    print[ P_Cartesian ] 0
end
*xyz 0 1
 C        0.9350640000     0.0597890000     0.0379220000 
 C        2.4472800000    -0.0685360000    -0.1195350000 
 C        2.8434820000    -1.3193240000    -0.8387600000 
 N        3.1486520000    -1.2696520000    -2.1183940000 
 S        3.5043330000    -2.7713110000    -2.6641860000 
 C        3.2570970000    -3.5471270000    -1.1794140000 
 C        2.8924740000    -2.6132240000    -0.2541290000 
 H        0.6776870000     0.9811370000     0.5650220000 
 H        0.5209340000    -0.7782850000     0.6037310000 
 H        0.4463180000     0.0781890000    -0.9383250000 
 H        2.9230340000    -0.0562780000     0.8661100000 
 H        2.8377560000     0.7828180000    -0.6802330000 
 H        3.3887280000    -4.6109710000    -1.0452120000 
 H        2.6759590000    -2.8273250000     0.7839130000 
*
