! RI PBE def2-SVP def2-SVP/J NBO PAL2
% maxcore 2000
% output
    # printlevel mini
    print[ P_Basis ] 0
    print[ P_SCFInfo ] 1
    print[ P_SCFIterInfo ] 1
    print[ P_OrbEn ] 0
    print[ P_Cartesian ] 0
end
*xyz 0 1
 C        0.8113060000    -0.0628990000    -0.2334540000 
 C        2.0145810000     0.2337500000     0.2533380000 
 C        2.7954780000    -0.5559610000     1.1784480000 
 C        4.0339920000    -0.2497890000     1.6791810000 
 N        4.5848130000    -1.1447690000     2.5412400000 
 C        3.7827100000    -2.1477260000     2.7160200000 
 S        2.3071140000    -2.0669520000     1.8430540000 
 H        0.3117090000     0.6031590000    -0.9250490000 
 H        0.2869430000    -0.9729120000     0.0386390000 
 H        2.4950240000     1.1598270000    -0.0531850000 
 H        4.5791090000     0.6508110000     1.4246490000 
 H        3.9989200000    -2.9907380000     3.3593170000 
*
