! RI PBE def2-SVP def2-SVP/J NBO PAL2
% maxcore 2000
% output
    # printlevel mini
    print[ P_Basis ] 0
    print[ P_SCFInfo ] 1
    print[ P_SCFIterInfo ] 1
    print[ P_OrbEn ] 0
    print[ P_Cartesian ] 0
end
*xyz 0 1
 C        0.9698320000     0.2170870000    -0.2523580000 
 C        2.4562370000    -0.0803160000    -0.0855280000 
 C        2.8726230000    -0.3125550000     1.3280470000 
 C        3.3559680000    -1.4549790000     1.8942620000 
 N        3.6551700000    -1.4054140000     3.2238440000 
 C        3.4062860000    -0.2264610000     3.6953810000 
 S        2.7911940000     0.8951190000     2.5487180000 
 H        0.7201100000     0.3549630000    -1.3065980000 
 H        0.6859830000     1.1272230000     0.2810410000 
 H        0.3624190000    -0.6013820000     0.1394390000 
 H        3.0429420000     0.7381590000    -0.5158320000 
 H        2.7203240000    -0.9767530000    -0.6540770000 
 H        3.5123690000    -2.3780820000     1.3494220000 
 H        3.5619440000     0.0614920000     4.7268380000 
*
