! RI PBE def2-SVP def2-SVP/J NBO PAL2
% maxcore 2000
% output
    # printlevel mini
    print[ P_Basis ] 0
    print[ P_SCFInfo ] 1
    print[ P_SCFIterInfo ] 1
    print[ P_OrbEn ] 0
    print[ P_Cartesian ] 0
end
*xyz 0 1
 C        1.3059160000    -0.4956040000     0.5153550000 
 C        2.2278820000     0.1210720000    -0.2197280000 
 C        2.9516510000    -0.4508330000    -1.3362870000 
 C        3.9059250000     0.1771280000    -2.1023200000 
 N        4.4345990000    -0.5797950000    -3.0908780000 
 N        3.9610480000    -1.7602740000    -3.1551060000 
 S        2.8000360000    -2.0199400000    -1.9653720000 
 H        0.8157630000     0.0149700000     1.3344620000 
 H        1.0101720000    -1.5223910000     0.3276540000 
 H        2.4886980000     1.1508820000     0.0092890000 
 H        4.2475200000     1.1948750000    -1.9712790000 
*
