! RI PBE def2-SVP def2-SVP/J NBO PAL2
% maxcore 2000
% output
    # printlevel mini
    print[ P_Basis ] 0
    print[ P_SCFInfo ] 1
    print[ P_SCFIterInfo ] 1
    print[ P_OrbEn ] 0
    print[ P_Cartesian ] 0
end
*xyz 0 1
 C        1.2113950000    -0.4633740000    -0.5054880000 
 C        2.1160560000     0.2051120000     0.2059770000 
 C        2.9161030000    -0.3285570000     1.2981050000 
 C        3.8416220000     0.3972790000     2.0099930000 
 S        4.5512790000    -0.5845780000     3.1875390000 
 N        3.6949520000    -1.9297160000     2.8054560000 
 C        2.8878920000    -1.6562060000     1.8124220000 
 H        0.6633920000     0.0223100000    -1.3030220000 
 H        0.9839820000    -1.5076660000    -0.3236580000 
 H        2.2939110000     1.2509910000    -0.0304630000 
 H        4.1091640000     1.4356870000     1.8755540000 
 H        2.2482410000    -2.4485840000     1.4396840000 
*
