! RI PBE def2-SVP def2-SVP/J NBO PAL2
% maxcore 2000
% output
    # printlevel mini
    print[ P_Basis ] 0
    print[ P_SCFInfo ] 1
    print[ P_SCFIterInfo ] 1
    print[ P_OrbEn ] 0
    print[ P_Cartesian ] 0
end
*xyz 0 1
 C        0.8729650000    -0.0051490000    -0.0730070000 
 C        2.0746840000     0.0310880000    -0.0713170000 
 C        3.4898250000     0.0533100000    -0.0692840000 
 C        4.2777070000     1.1820240000    -0.0682680000 
 S        5.8998800000     0.7201480000    -0.0658950000 
 N        5.6143260000    -0.8921650000    -0.0661320000 
 C        4.3232360000    -1.1015210000    -0.0679610000 
 H       -0.1909750000    -0.0349000000    -0.0744980000 
 H        3.9519030000     2.2114730000    -0.0688440000 
 H        3.9489580000    -2.1189180000    -0.0683920000 
*
