! RI PBE def2-SVP def2-SVP/J NBO PAL2
% maxcore 2000
% output
    # printlevel mini
    print[ P_Basis ] 0
    print[ P_SCFInfo ] 1
    print[ P_SCFIterInfo ] 1
    print[ P_OrbEn ] 0
    print[ P_Cartesian ] 0
end
*xyz 0 1
 C        2.0334770000    -0.9289170000     0.9371550000 
 C        2.4723870000     0.0027520000     0.0955580000 
 C        3.1426940000    -0.2531120000    -1.1707510000 
 N        3.5374220000     0.7579800000    -1.9291370000 
 S        4.2371550000     0.1396210000    -3.2471770000 
 N        4.0681990000    -1.4398050000    -2.9100730000 
 C        3.4573420000    -1.5165910000    -1.7527450000 
 H        1.5431030000    -0.6542310000     1.8625540000 
 H        2.1434440000    -1.9895700000     0.7409460000 
 H        2.3424910000     1.0544500000     0.3296460000 
 H        3.2373970000    -2.4868680000    -1.3257870000 
*
