! RI PBE def2-SVP def2-SVP/J NBO PAL2
% maxcore 2000
% output
    # printlevel mini
    print[ P_Basis ] 0
    print[ P_SCFInfo ] 1
    print[ P_SCFIterInfo ] 1
    print[ P_OrbEn ] 0
    print[ P_Cartesian ] 0
end
*xyz 0 1
 C        0.9489120000     0.0731670000     0.0131730000 
 C        2.1484490000     0.1327190000     0.0137750000 
 C        3.5663160000     0.1541270000     0.0144000000 
 N        4.2555080000     1.2865310000     0.0166420000 
 S        5.8177880000     0.8882140000     0.0166020000 
 N        5.6821820000    -0.7269280000     0.0137560000 
 C        4.3995990000    -1.0011310000     0.0127510000 
 H       -0.1151230000     0.0349600000     0.0126660000 
 H        4.0507590000    -2.0258580000     0.0108360000 
*
