! RI PBE def2-SVP def2-SVP/J NBO PAL2
% maxcore 2000
% output
    # printlevel mini
    print[ P_Basis ] 0
    print[ P_SCFInfo ] 1
    print[ P_SCFIterInfo ] 1
    print[ P_OrbEn ] 0
    print[ P_Cartesian ] 0
end
*xyz 0 1
 C        0.8351740000     0.0575120000    -0.1239530000 
 C        2.3373000000     0.0831790000     0.1392910000 
 C        2.7260790000    -0.7388920000     1.3247580000 
 N        2.6773340000    -2.0579150000     1.2932860000 
 S        3.1386400000    -2.5987810000     2.7469540000 
 N        3.4186680000    -1.1791720000     3.4736700000 
 C        3.1539830000    -0.2454860000     2.5861030000 
 H        0.5880770000     0.6503450000    -1.0069440000 
 H        0.2788910000     0.4642550000     0.7237380000 
 H        0.4939240000    -0.9655260000    -0.2909610000 
 H        2.6747990000     1.1111650000     0.2969540000 
 H        2.8697330000    -0.2972620000    -0.7366420000 
 H        3.2726090000     0.7997880000     2.8462550000 
*
