! RI PBE def2-SVP def2-SVP/J NBO PAL2
% maxcore 2000
% output
    # printlevel mini
    print[ P_Basis ] 0
    print[ P_SCFInfo ] 1
    print[ P_SCFIterInfo ] 1
    print[ P_OrbEn ] 0
    print[ P_Cartesian ] 0
end
*xyz 0 1
 C        1.1502210000    -0.3931220000    -0.3452280000 
 C        2.1907630000     0.1187400000     0.3058560000 
 C        2.9664870000    -0.5979390000     1.3063080000 
 C        4.0387990000    -0.0757900000     1.9798010000 
 S        4.6743070000    -1.2249180000     3.0629120000 
 C        3.4674570000    -2.3358340000     2.5503840000 
 N        2.6582240000    -1.8904560000     1.6484640000 
 H        0.6099920000     0.1894410000    -1.0810850000 
 H        0.8191750000    -1.4068450000    -0.1533260000 
 H        2.5115440000     1.1365240000     0.1032690000 
 H        4.4671280000     0.9099400000     1.8843550000 
 H        3.4145140000    -3.3313300000     2.9718900000 
*
