! RI PBE def2-SVP def2-SVP/J NBO PAL2
% maxcore 2000
% output
    # printlevel mini
    print[ P_Basis ] 0
    print[ P_SCFInfo ] 1
    print[ P_SCFIterInfo ] 1
    print[ P_OrbEn ] 0
    print[ P_Cartesian ] 0
end
*xyz 0 1
 C        1.0330220000    -0.0925350000     0.0403940000 
 C        2.2335510000    -0.0672500000     0.0423650000 
 C        3.6487400000    -0.0208030000     0.0446390000 
 C        4.4228190000     1.1148720000     0.0426200000 
 S        6.0309120000     0.6482720000     0.0467250000 
 N        5.6429870000    -0.9911550000     0.0508760000 
 N        4.3894090000    -1.1745760000     0.0492750000 
 H       -0.0310760000    -0.1256610000     0.0386770000 
 H        4.0835360000     2.1386260000     0.0390380000 
*
