! RI PBE def2-SVP def2-SVP/J NBO PAL2
% maxcore 2000
% output
    # printlevel mini
    print[ P_Basis ] 0
    print[ P_SCFInfo ] 1
    print[ P_SCFIterInfo ] 1
    print[ P_OrbEn ] 0
    print[ P_Cartesian ] 0
end
*xyz 0 1
 C        0.8902030000    -0.1299600000    -0.2134720000 
 C        2.3887060000     0.0058820000     0.0336320000 
 C        2.7590820000     1.3365020000     0.5994030000 
 C        3.2168310000     1.6160130000     1.8593370000 
 S        3.4591880000     3.2744840000     1.9784770000 
 N        2.9602430000     3.5437000000     0.3986820000 
 N        2.6349330000     2.4542710000    -0.1719320000 
 H        0.6592790000    -1.0990600000    -0.6605690000 
 H        0.5410940000     0.6514970000    -0.8904600000 
 H        0.3285350000    -0.0434780000     0.7195350000 
 H        2.9279410000    -0.1276780000    -0.9089840000 
 H        2.7347460000    -0.7782660000     0.7112460000 
 H        3.4056500000     0.9228840000     2.6644840000 
*
