! RI PBE def2-SVP def2-SVP/J NBO PAL2
% maxcore 2000
% output
    # printlevel mini
    print[ P_Basis ] 0
    print[ P_SCFInfo ] 1
    print[ P_SCFIterInfo ] 1
    print[ P_OrbEn ] 0
    print[ P_Cartesian ] 0
end
*xyz 0 1
 C        0.7515900000     0.0321890000    -0.1145520000 
 C        2.0242870000    -0.0181440000     0.2686430000 
 C        2.7473430000    -1.1997680000     0.6984730000 
 N        4.0006790000    -1.1649010000     1.0604460000 
 C        4.4455850000    -2.3972450000     1.4178430000 
 C        3.5330890000    -3.4037970000     1.3347800000 
 S        2.0447610000    -2.7818790000     0.7829230000 
 H        0.2994170000     0.9671960000    -0.4194220000 
 H        0.1185070000    -0.8489150000    -0.1384570000 
 H        2.6334710000     0.8804470000     0.2823260000 
 H        5.4707930000    -2.5199000000     1.7417320000 
 H        3.6589700000    -4.4503830000     1.5642650000 
*
