! RI PBE def2-SVP def2-SVP/J NBO PAL2
% maxcore 2000
% output
    # printlevel mini
    print[ P_Basis ] 0
    print[ P_SCFInfo ] 1
    print[ P_SCFIterInfo ] 1
    print[ P_OrbEn ] 0
    print[ P_Cartesian ] 0
end
*xyz 0 1
 C        0.9075360000     0.3739200000    -0.0256160000 
 C        2.3842970000     0.0185610000     0.1119410000 
 C        2.7100570000    -1.3013830000    -0.5049510000 
 N        2.6968740000    -1.5339420000    -1.7825160000 
 C        3.0042820000    -2.8333100000    -2.0521200000 
 C        3.2582160000    -3.6200060000    -0.9719990000 
 S        3.1058300000    -2.6867160000     0.4474110000 
 H        0.7086130000     1.3608170000     0.3976120000 
 H        0.2793230000    -0.3528070000     0.4943270000 
 H        0.6156400000     0.3831740000    -1.0767200000 
 H        2.6767230000     0.0132010000     1.1650540000 
 H        2.9939880000     0.7781040000    -0.3860850000 
 H        3.0349730000    -3.1701210000    -3.0802000000 
 H        3.5242560000    -4.6649120000    -0.9453390000 
*
