! RI PBE def2-SVP def2-SVP/J NBO PAL2
% maxcore 2000
% output
    # printlevel mini
    print[ P_Basis ] 0
    print[ P_SCFInfo ] 1
    print[ P_SCFIterInfo ] 1
    print[ P_OrbEn ] 0
    print[ P_Cartesian ] 0
end
*xyz 0 1
 C        0.8748990000    -0.1248680000    -0.0680840000 
 C        2.1829740000    -0.1662710000     0.1670210000 
 C        2.9315070000    -1.3451780000     0.5609070000 
 N        4.2248270000    -1.3272920000     0.7803640000 
 C        4.6296640000    -2.5697080000     1.1292430000 
 N        3.7624350000    -3.5469740000     1.1984660000 
 S        2.2972790000    -2.9240980000     0.8055390000 
 H        0.3905520000     0.7985140000    -0.3590050000 
 H        0.2422570000    -1.0022960000     0.0197010000 
 H        2.7933420000     0.7261620000     0.0720450000 
 H        5.6731650000    -2.7589800000     1.3519040000 
*
