! RI PBE def2-SVP def2-SVP/J NBO PAL2
% maxcore 2000
% output
    # printlevel mini
    print[ P_Basis ] 0
    print[ P_SCFInfo ] 1
    print[ P_SCFIterInfo ] 1
    print[ P_OrbEn ] 0
    print[ P_Cartesian ] 0
end
*xyz 0 1
 C        0.9867190000     0.2726300000    -0.0301060000 
 C        2.4774720000    -0.0463950000    -0.0529260000 
 C        2.8883120000    -0.7335960000    -1.3098230000 
 N        2.7606270000    -0.2257070000    -2.5078740000 
 C        3.2232150000    -1.1184760000    -3.4159220000 
 N        3.6944440000    -2.2733610000    -3.0205340000 
 S        3.5737350000    -2.2984360000    -1.3851670000 
 H        0.7270190000     0.8127400000     0.8822210000 
 H        0.3899130000    -0.6411550000    -0.0669920000 
 H        0.7160560000     0.8891660000    -0.8879130000 
 H        2.7514290000    -0.6621320000     0.8075050000 
 H        3.0545610000     0.8806340000     0.0226890000 
 H        3.2034880000    -0.8782010000    -4.4725780000 
*
