! RI PBE def2-SVP def2-SVP/J NBO PAL2
% maxcore 2000
% output
    # printlevel mini
    print[ P_Basis ] 0
    print[ P_SCFInfo ] 1
    print[ P_SCFIterInfo ] 1
    print[ P_OrbEn ] 0
    print[ P_Cartesian ] 0
end
*xyz 0 1
 C        1.0330230000     0.1176360000     0.0492430000 
 C        2.5403110000    -0.1046330000     0.1004630000 
 C        3.0357670000    -0.3159710000     1.4915590000 
 N        3.5705720000    -1.4557840000     1.8617410000 
 S        3.9852610000    -1.3331900000     3.4428770000 
 C        3.4149400000     0.2653060000     3.5459560000 
 N        2.9280250000     0.6849000000     2.4160050000 
 H        0.7085030000     0.3041630000    -0.9763430000 
 H        0.7479760000     0.9754600000     0.6606030000 
 H        0.4958680000    -0.7581800000     0.4200560000 
 H        3.0530030000     0.7699900000    -0.3120330000 
 H        2.8273630000    -0.9702210000    -0.4979330000 
 H        3.4557780000     0.8641240000     4.4470070000 
*
