! RI PBE def2-SVP def2-SVP/J NBO PAL2
% maxcore 2000
% output
    # printlevel mini
    print[ P_Basis ] 0
    print[ P_SCFInfo ] 1
    print[ P_SCFIterInfo ] 1
    print[ P_OrbEn ] 0
    print[ P_Cartesian ] 0
end
*xyz 0 1
 C        0.9725420000     0.0659660000    -0.0682970000 
 C        2.1730440000     0.0342200000    -0.0680330000 
 C        3.5816680000    -0.0385500000    -0.0677390000 
 N        4.3777830000     0.9981470000    -0.0670310000 
 N        5.6753750000     0.6581720000    -0.0668970000 
 C        5.8626780000    -0.6255790000    -0.0675000000 
 S        4.4240620000    -1.5462250000    -0.0683030000 
 H       -0.0914790000     0.1092350000    -0.0685230000 
 H        6.8446270000    -1.0781870000    -0.0674970000 
*
