! RI PBE def2-SVP def2-SVP/J NBO PAL2
% maxcore 2000
% output
    # printlevel mini
    print[ P_Basis ] 0
    print[ P_SCFInfo ] 1
    print[ P_SCFIterInfo ] 1
    print[ P_OrbEn ] 0
    print[ P_Cartesian ] 0
end
*xyz 0 1
 C        0.6731670000    -0.0358780000     0.0896400000 
 C        2.1235480000     0.1077560000    -0.2121730000 
 C        2.9570510000    -0.9202090000    -0.3581580000 
 N        4.3226190000    -0.7980650000    -0.5736430000 
 C        5.1959400000    -1.7694550000    -0.9365840000 
 N        4.6606770000    -2.9754440000    -1.2474390000 
 S        6.8311170000    -1.4890150000    -0.9592150000 
 H        0.4162660000     0.4309990000     1.0459770000 
 H        0.3773760000    -1.0858700000     0.1407410000 
 H        0.0584600000     0.4523920000    -0.6731020000 
 H        2.5159220000     1.1185490000    -0.3043070000 
 H        2.5961980000    -1.9388090000    -0.2591290000 
 H        4.7622680000     0.0932140000    -0.4057650000 
 H        3.7167310000    -3.0363580000    -1.5922210000 
 H        5.3184600000    -3.6421870000    -1.6121930000 
*
