! RI PBE def2-SVP def2-SVP/J NBO PAL2
% maxcore 2000
% output
    # printlevel mini
    print[ P_Basis ] 0
    print[ P_SCFInfo ] 1
    print[ P_SCFIterInfo ] 1
    print[ P_OrbEn ] 0
    print[ P_Cartesian ] 0
end
*xyz 0 1
 C        1.1521800000     0.3702180000    -0.7776930000 
 C        2.3436200000     0.5941590000     0.1368580000 
 C        2.6607610000     2.0764230000     0.2984770000 
 N        2.0754510000    -0.0512360000     1.4092220000 
 C        2.9616120000    -0.3867800000     2.3671760000 
 N        4.2721260000    -0.2329800000     2.0694490000 
 S        2.4684490000    -0.9517410000     3.8551620000 
 H        1.3299750000     0.8234870000    -1.7540350000 
 H        0.2542180000     0.8324990000    -0.3564750000 
 H        0.9580940000    -0.6945040000    -0.9192490000 
 H        3.2053570000     0.0917880000    -0.3224150000 
 H        1.7910090000     2.6065650000     0.6943120000 
 H        2.9240240000     2.5211830000    -0.6643700000 
 H        3.4915200000     2.2318760000     0.9888110000 
 H        1.1167420000    -0.1350470000     1.7064310000 
 H        4.5902640000    -0.0924960000     1.1262010000 
 H        4.9182760000    -0.6114060000     2.7382290000 
*
