! RI PBE def2-SVP def2-SVP/J NBO PAL2
% maxcore 2000
% output
    # printlevel mini
    print[ P_Basis ] 0
    print[ P_SCFInfo ] 1
    print[ P_SCFIterInfo ] 1
    print[ P_OrbEn ] 0
    print[ P_Cartesian ] 0
end
*xyz 0 1
 C        0.8030640000     0.1557810000    -0.0625410000 
 C        2.2787850000     0.3092250000    -0.1279110000 
 C        3.1126760000     0.0912100000     0.8798640000 
 S        4.8309820000     0.4053030000     0.7048860000 
 C        5.5667580000    -1.2027490000     0.8095200000 
 O        5.0753240000     0.9131420000    -0.6183310000 
 O        5.2561200000     1.1493660000     1.8593970000 
 H        0.4608840000    -0.5583760000    -0.8176670000 
 H        0.3147490000     1.1075590000    -0.2929630000 
 H        0.4653530000    -0.1807750000     0.9181240000 
 H        2.7100360000     0.6407740000    -1.0701370000 
 H        2.8018200000    -0.2146770000     1.8736350000 
 H        5.2279160000    -1.8108690000    -0.0275830000 
 H        5.3073060000    -1.6580070000     1.7646440000 
 H        6.6443260000    -1.0415270000     0.7538720000 
*
