! RI PBE def2-SVP def2-SVP/J NBO PAL2
% maxcore 2000
% output
    # printlevel mini
    print[ P_Basis ] 0
    print[ P_SCFInfo ] 1
    print[ P_SCFIterInfo ] 1
    print[ P_OrbEn ] 0
    print[ P_Cartesian ] 0
end
*xyz 0 1
 C        0.9889610000     0.1588700000    -0.0664560000 
 C        2.4749380000     0.0801240000     0.0271540000 
 C        3.2446010000     0.6787310000     0.9242800000 
 S        3.2994410000    -0.8442560000    -1.2528190000 
 C        2.9048900000    -2.5316970000    -0.8812760000 
 O        2.6632200000    -0.5114120000    -2.4997200000 
 O        4.7203890000    -0.6921570000    -1.1010370000 
 H        0.5960240000     0.8028820000     0.7212210000 
 H        0.5231340000    -0.8254250000     0.0373460000 
 H        0.6887580000     0.5566860000    -1.0379300000 
 H        2.8101840000     1.2958660000     1.7039100000 
 H        4.3222790000     0.5779660000     0.8866520000 
 H        1.8259950000    -2.6760750000    -0.9121840000 
 H        3.3178000000    -2.7922390000     0.0919390000 
 H        3.3804670000    -3.1209640000    -1.6665710000 
*
