! RI PBE def2-SVP def2-SVP/J NBO PAL2
% maxcore 2000
% output
    # printlevel mini
    print[ P_Basis ] 0
    print[ P_SCFInfo ] 1
    print[ P_SCFIterInfo ] 1
    print[ P_OrbEn ] 0
    print[ P_Cartesian ] 0
end
*xyz 0 1
 C        0.9762080000    -0.0879260000     0.1195030000 
 C        2.4934160000    -0.0125990000     0.0316870000 
 C        2.9699660000     0.7387430000    -1.1979990000 
 S        3.0747020000     0.7590730000     1.5511840000 
 C        4.8440440000     0.6725700000     1.4658690000 
 O        2.7011760000     2.1494950000     1.5280050000 
 O        2.6610100000    -0.0743890000     2.6495860000 
 H        0.5916360000    -0.6097970000    -0.7592470000 
 H        0.5432220000     0.9141080000     0.1401100000 
 H        0.6554000000    -0.6245070000     1.0122420000 
 H        2.9163130000    -1.0221280000     0.0644360000 
 H        2.6299860000     1.7755130000    -1.1670110000 
 H        2.5551000000     0.2688330000    -2.0927450000 
 H        4.0567040000     0.7326510000    -1.2982770000 
 H        5.2141290000     1.2940560000     0.6531160000 
 H        5.1565850000    -0.3652430000     1.3569370000 
 H        5.1903800000     1.0652570000     2.4224930000 
*
