! RI PBE def2-SVP def2-SVP/J NBO PAL2
% maxcore 2000
% output
    # printlevel mini
    print[ P_Basis ] 0
    print[ P_SCFInfo ] 1
    print[ P_SCFIterInfo ] 1
    print[ P_OrbEn ] 0
    print[ P_Cartesian ] 0
end
*xyz 0 1
 C        0.9651090000     0.0345110000    -0.0386810000 
 C        2.4098610000     0.0581630000    -0.0261290000 
 C        3.6135040000     0.0834380000    -0.0230760000 
 S        5.3221440000     0.1607220000    -0.0737760000 
 C        5.7808040000    -0.8574140000     1.2930470000 
 O        5.7579480000    -0.4766280000    -1.2796110000 
 O        5.7125000000     1.5079500000     0.2139370000 
 H        0.5633130000     1.0431140000     0.0821340000 
 H        0.5844320000    -0.5857450000     0.7761760000 
 H        0.5957380000    -0.3745460000    -0.9818420000 
 H        5.4120780000    -1.8681010000     1.1258120000 
 H        5.3791000000    -0.4281890000     2.2094610000 
 H        6.8719680000    -0.8477850000     1.3134580000 
*
