! RI PBE def2-SVP def2-SVP/J NBO PAL2
% maxcore 2000
% output
    # printlevel mini
    print[ P_Basis ] 0
    print[ P_SCFInfo ] 1
    print[ P_SCFIterInfo ] 1
    print[ P_OrbEn ] 0
    print[ P_Cartesian ] 0
end
*xyz 0 1
 C        0.9786680000    -0.1021540000     0.0965630000 
 C        2.4623240000    -0.0413490000     0.0428670000 
 C        3.2361660000     0.4456830000     1.0035250000 
 S        4.9844370000     0.4224010000     0.8809560000 
 N        5.4702340000     1.9852360000     0.8081580000 
 O        5.4844470000    -0.0727080000     2.1258280000 
 O        5.3363660000    -0.1641190000    -0.3743260000 
 H        0.6388780000    -1.1385890000     0.0086320000 
 H        0.5426450000     0.4395960000    -0.7483330000 
 H        0.5823560000     0.3160990000     1.0225290000 
 H        2.9512090000    -0.4365600000    -0.8445180000 
 H        2.8570790000     0.8391540000     1.9416770000 
 H        5.3577680000     2.4982710000     1.6702380000 
 H        5.1768140000     2.4803280000    -0.0214180000 
*
