! RI PBE def2-SVP def2-SVP/J NBO PAL2
% maxcore 2000
% output
    # printlevel mini
    print[ P_Basis ] 0
    print[ P_SCFInfo ] 1
    print[ P_SCFIterInfo ] 1
    print[ P_OrbEn ] 0
    print[ P_Cartesian ] 0
end
*xyz 0 1
 C        1.1552150000     0.1812050000    -0.2295290000 
 C        2.5783600000    -0.1330780000     0.0806110000 
 C        3.2428870000     0.2000130000     1.1773030000 
 S        3.4310360000    -1.1048620000    -1.1308280000 
 N        3.4454790000    -0.1062940000    -2.4437160000 
 O        4.7791340000    -1.3117840000    -0.6945320000 
 O        2.5792280000    -2.2042000000    -1.4792300000 
 H        1.0776780000     0.7498660000    -1.1595420000 
 H        0.7159260000     0.7684720000     0.5774670000 
 H        0.5775510000    -0.7369410000    -0.3564380000 
 H        2.7561210000     0.7657300000     1.9644460000 
 H        4.2769410000    -0.0892010000     1.3139880000 
 H        4.3583320000     0.2970300000    -2.6050440000 
 H        3.0671130000    -0.5725570000    -3.2571560000 
*
