! RI PBE def2-SVP def2-SVP/J NBO PAL2
% maxcore 2000
% output
    # printlevel mini
    print[ P_Basis ] 0
    print[ P_SCFInfo ] 1
    print[ P_SCFIterInfo ] 1
    print[ P_OrbEn ] 0
    print[ P_Cartesian ] 0
end
*xyz 0 1
 C        1.0693270000     0.0780700000    -0.0084910000 
 C        2.5146090000     0.0992000000    -0.0261840000 
 C        3.7184470000     0.1069720000    -0.0437580000 
 S        5.4254670000     0.0707580000    -0.0824830000 
 N        5.9047380000     1.5657000000     0.3466310000 
 O        5.8510980000    -0.8069320000     0.9548320000 
 O        5.8115930000    -0.1064210000    -1.4415420000 
 H        0.7049330000    -0.6691540000     0.7002700000 
 H        0.6767330000    -0.1664160000    -0.9982190000 
 H        0.6714780000     1.0519780000     0.2863970000 
 H        5.7067510000     1.8070470000     1.3072640000 
 H        5.6798160000     2.2845990000    -0.3263150000 
*
