! RI PBE def2-SVP def2-SVP/J NBO PAL2
% maxcore 2000
% output
    # printlevel mini
    print[ P_Basis ] 0
    print[ P_SCFInfo ] 1
    print[ P_SCFIterInfo ] 1
    print[ P_OrbEn ] 0
    print[ P_Cartesian ] 0
end
*xyz 0 1
 C        1.2185950000    -0.0589780000     0.2559870000 
 C        2.7267800000     0.0293700000     0.0882270000 
 C        3.1055640000     0.5051870000    -1.3039610000 
 S        4.8666670000     0.6085220000    -1.5006460000 
 N        5.0242350000     1.1348660000    -3.0572530000 
 O        5.3511130000     1.6482230000    -0.6399980000 
 O        5.4012600000    -0.7205470000    -1.4360980000 
 H        0.9597870000    -0.4017000000     1.2596720000 
 H        0.7785020000    -0.7601490000    -0.4581070000 
 H        0.7430190000     0.9136840000     0.1042980000 
 H        3.1836050000    -0.9474140000     0.2677180000 
 H        3.1483460000     0.7163200000     0.8267270000 
 H        2.7158320000     1.5039190000    -1.5155220000 
 H        2.7514130000    -0.1772880000    -2.0804380000 
 H        5.4615780000     2.0455270000    -3.0947500000 
 H        5.4961040000     0.4491480000    -3.6309360000 
*
