! RI PBE def2-SVP def2-SVP/J NBO PAL2
% maxcore 2000
% output
    # printlevel mini
    print[ P_Basis ] 0
    print[ P_SCFInfo ] 1
    print[ P_SCFIterInfo ] 1
    print[ P_OrbEn ] 0
    print[ P_Cartesian ] 0
end
*xyz 0 1
 C        1.0622680000    -0.0269840000    -0.1057110000 
 C        2.5811710000    -0.0777220000    -0.0292580000 
 C        3.0906500000    -0.6030660000     1.2999520000 
 S        3.1706230000    -1.0774420000    -1.3891210000 
 O        4.7543330000    -0.8908940000    -1.2668650000 
 O        2.8928270000    -2.4605310000    -1.1363190000 
 O        2.7766020000    -0.4599270000    -2.6100850000 
 H        0.6879680000     0.6355550000     0.6773010000 
 H        0.6331870000    -1.0184530000     0.0531970000 
 H        0.7232930000     0.3505120000    -1.0702650000 
 H        3.0006020000     0.9104770000    -0.2418590000 
 H        2.7417440000    -1.6229350000     1.4716500000 
 H        2.7082980000     0.0282610000     2.1049200000 
 H        4.1799620000    -0.5881120000     1.3528440000 
 H        5.1261710000    -1.7312260000    -0.9683820000 
*
