! RI PBE def2-SVP def2-SVP/J NBO PAL2
% maxcore 2000
% output
    # printlevel mini
    print[ P_Basis ] 0
    print[ P_SCFInfo ] 1
    print[ P_SCFIterInfo ] 1
    print[ P_OrbEn ] 0
    print[ P_Cartesian ] 0
end
*xyz 0 1
 C        1.7025710000     0.5314370000    -0.3574280000 
 C        3.1371310000     0.0444830000    -0.2345290000 
 C        3.2141200000    -1.2603220000     0.5427110000 
 S        4.8852930000    -1.8287400000     0.6852960000 
 O        4.6919800000    -3.1325740000     1.5889370000 
 O        5.3556080000    -2.2709690000    -0.5929870000 
 O        5.6262360000    -0.8911900000     1.4584420000 
 H        1.6593680000     1.4680370000    -0.9162450000 
 H        1.2573200000     0.7094200000     0.6249160000 
 H        1.0775430000    -0.1969320000    -0.8807020000 
 H        3.7491360000     0.7955450000     0.2709810000 
 H        3.5710270000    -0.1033440000    -1.2271190000 
 H        2.6552320000    -2.0607090000     0.0519030000 
 H        2.8450560000    -1.1481030000     1.5649870000 
 H        4.8521790000    -3.9039610000     1.0293570000 
*
