! RI PBE def2-SVP def2-SVP/J NBO PAL2
% maxcore 2000
% output
    # printlevel mini
    print[ P_Basis ] 0
    print[ P_SCFInfo ] 1
    print[ P_SCFIterInfo ] 1
    print[ P_OrbEn ] 0
    print[ P_Cartesian ] 0
end
*xyz 0 1
 C        3.4873480000     1.2095960000     0.0308690000 
 C        3.5234440000    -0.2572890000    -0.3692610000 
 N        3.3979210000    -1.1743930000     0.7499760000 
 C        2.0541000000    -1.6162130000     1.0437430000 
 C        4.4316980000    -1.4827150000     1.5650600000 
 N        5.6378970000    -0.9470800000     1.2383940000 
 S        4.3171100000    -2.4348660000     2.9344150000 
 H        3.5547720000     1.8465590000    -0.8542210000 
 H        4.3125930000     1.4597910000     0.6995490000 
 H        2.5539550000     1.4451400000     0.5459490000 
 H        4.4271210000    -0.4830980000    -0.9447940000 
 H        2.6951380000    -0.4757000000    -1.0470740000 
 H        1.4105910000    -0.7657500000     1.2928100000 
 H        2.0873750000    -2.2950410000     1.8927220000 
 H        1.6338390000    -2.1314990000     0.1752470000 
 H        5.8304740000    -0.5841160000     0.3216280000 
 H        6.4109230000    -1.3086270000     1.7678960000 
*
