! RI PBE def2-SVP def2-SVP/J NBO PAL2
% maxcore 2000
% output
    # printlevel mini
    print[ P_Basis ] 0
    print[ P_SCFInfo ] 1
    print[ P_SCFIterInfo ] 1
    print[ P_OrbEn ] 0
    print[ P_Cartesian ] 0
end
*xyz 0 1
 C        2.2930470000    -1.5932510000    -0.3996180000 
 C        2.2508080000    -0.1188840000    -0.0223640000 
 N        3.1542340000     0.7157230000    -0.7780590000 
 C        4.4965460000     0.8217840000    -0.6233930000 
 S        5.4150450000     1.6902600000    -1.7115560000 
 N        5.0298170000     0.2036220000     0.4466620000 
 C        6.4285470000     0.2833430000     0.7856180000 
 H        1.5911650000    -2.1656210000     0.2118790000 
 H        3.2912200000    -2.0129570000    -0.2588590000 
 H        2.0217120000    -1.7281850000    -1.4483940000 
 H        2.4413480000     0.0113950000     1.0498410000 
 H        1.2450060000     0.2763260000    -0.1811250000 
 H        2.8227830000     1.1496420000    -1.6226020000 
 H        4.4178940000    -0.2540820000     1.0989560000 
 H        6.7297570000     1.3123260000     0.9961010000 
 H        7.0442560000    -0.0807800000    -0.0383140000 
 H        6.6016930000    -0.3339600000     1.6679300000 
*
