! RI PBE def2-SVP def2-SVP/J NBO PAL2
% maxcore 2000
% output
    # printlevel mini
    print[ P_Basis ] 0
    print[ P_SCFInfo ] 1
    print[ P_SCFIterInfo ] 1
    print[ P_OrbEn ] 0
    print[ P_Cartesian ] 0
end
*xyz 0 1
 C        1.4491580000     0.2168570000    -0.7696960000 
 C        2.9586490000     0.2458360000    -0.6621840000 
 N        3.3952210000    -0.6287080000     0.4220510000 
 S        4.9956990000    -0.7443100000     0.7816190000 
 C        5.1909470000     0.4089580000     2.1041300000 
 O        5.1870060000    -2.0643340000     1.3062880000 
 O        5.7812820000    -0.2634210000    -0.3168830000 
 H        1.1163490000     0.8795640000    -1.5705000000 
 H        0.9807190000     0.5371820000     0.1629660000 
 H        1.0897660000    -0.7891710000    -1.0038540000 
 H        3.2984550000     1.2595780000    -0.4361270000 
 H        3.4212930000    -0.0384710000    -1.6126460000 
 H        2.9940980000    -1.5579390000     0.4102910000 
 H        4.5797320000     0.0879730000     2.9450770000 
 H        4.8977870000     1.4005640000     1.7610750000 
 H        6.2482290000     0.4053200000     2.3692930000 
*
