! RI PBE def2-SVP def2-SVP/J NBO PAL2
% maxcore 2000
% output
    # printlevel mini
    print[ P_Basis ] 0
    print[ P_SCFInfo ] 1
    print[ P_SCFIterInfo ] 1
    print[ P_OrbEn ] 0
    print[ P_Cartesian ] 0
end
*xyz 0 1
 C        3.0053850000    -0.3424780000     1.2921210000 
 C        2.8277700000    -0.8308790000    -0.1029980000 
 O        2.4415600000    -1.9022240000    -0.4591390000 
 S        3.2823380000     0.4363270000    -1.3753040000 
 C        2.9773900000    -0.4020150000    -2.8982640000 
 O        2.3484250000     1.5224610000    -1.2370320000 
 O        4.6949530000     0.6762960000    -1.2411270000 
 H        2.3923990000     0.5499520000     1.4420350000 
 H        4.0466950000    -0.0449760000     1.4398060000 
 H        2.7250610000    -1.1247140000     1.9951450000 
 H        1.9251400000    -0.6723220000    -2.9584010000 
 H        3.6152570000    -1.2812330000    -2.9614650000 
 H        3.2360270000     0.3197050000    -3.6741760000 
*
