! RI PBE def2-SVP def2-SVP/J NBO PAL2
% maxcore 2000
% output
    # printlevel mini
    print[ P_Basis ] 0
    print[ P_SCFInfo ] 1
    print[ P_SCFIterInfo ] 1
    print[ P_OrbEn ] 0
    print[ P_Cartesian ] 0
end
*xyz 0 1
 C        1.0601680000    -0.0011730000     0.1466160000 
 C        2.5658800000     0.0588620000     0.0163900000 
 O        3.0251350000     0.1733160000    -1.2956770000 
 S        3.1719930000     1.4887070000     0.9610400000 
 C        4.9321690000     1.3195960000     0.9022360000 
 O        2.8108070000     2.6504430000     0.1834530000 
 O        2.7409950000     1.3695330000     2.3279280000 
 H        0.6927400000    -0.8509390000    -0.4306240000 
 H        0.6051940000     0.9128040000    -0.2424610000 
 H        0.7629140000    -0.1188250000     1.1889500000 
 H        3.0398790000    -0.8250210000     0.4511630000 
 H        2.6796010000     1.0019140000    -1.6520780000 
 H        5.2447390000     1.2283750000    -0.1365020000 
 H        5.2294520000     0.4513630000     1.4885220000 
 H        5.3334350000     2.2316550000     1.3448640000 
*
