! RI PBE def2-SVP def2-SVP/J NBO PAL2
% maxcore 2000
% output
    # printlevel mini
    print[ P_Basis ] 0
    print[ P_SCFInfo ] 1
    print[ P_SCFIterInfo ] 1
    print[ P_OrbEn ] 0
    print[ P_Cartesian ] 0
end
*xyz 0 1
 C        1.2338760000     0.2598190000    -0.1836740000 
 C        2.7016550000     0.0623220000     0.0788020000 
 O        3.2309750000    -0.7403380000    -0.9998350000 
 S        4.7817350000    -1.0702230000    -0.9169920000 
 C        4.8915600000    -2.0124710000    -2.3961990000 
 O        5.5300320000     0.1401080000    -1.0574590000 
 O        5.0257130000    -1.9127530000     0.2122320000 
 H        0.8004940000     0.8648060000     0.6156400000 
 H        0.7102900000    -0.6971440000    -0.2128130000 
 H        1.0728560000     0.7762210000    -1.1313940000 
 H        2.8768250000    -0.4649120000     1.0198850000 
 H        3.2405050000     1.0128520000     0.0986220000 
 H        4.6114390000    -1.3836650000    -3.2389400000 
 H        4.2421250000    -2.8815250000    -2.3119620000 
 H        5.9333090000    -2.3212060000    -2.4795040000 
*
