! RI PBE def2-SVP def2-SVP/J NBO PAL2
% maxcore 2000
% output
    # printlevel mini
    print[ P_Basis ] 0
    print[ P_SCFInfo ] 1
    print[ P_SCFIterInfo ] 1
    print[ P_OrbEn ] 0
    print[ P_Cartesian ] 0
end
*xyz 0 1
 C        2.1459720000    -1.1506990000    -0.8550200000 
 C        2.5920030000     0.0073620000    -0.3995260000 
 S        3.3024320000     0.1216390000     1.2071550000 
 O        2.7287350000     1.2716720000     1.8499130000 
 O        3.2446500000    -1.1753310000     1.8230870000 
 C        4.9937260000     0.4641500000     0.8587280000 
 C        5.5163090000     1.6400230000     1.1616390000 
 H        1.6638550000    -1.2246980000    -1.8232490000 
 H        2.2415890000    -2.0491480000    -0.2553430000 
 H        2.5203680000     0.9506590000    -0.9292870000 
 H        5.5442790000    -0.3677090000     0.4338880000 
 H        4.9000250000     2.4173200000     1.5997810000 
 H        6.5675670000     1.8464510000     0.9954340000 
*
