! RI PBE def2-SVP def2-SVP/J NBO PAL2
% maxcore 2000
% output
    # printlevel mini
    print[ P_Basis ] 0
    print[ P_SCFInfo ] 1
    print[ P_SCFIterInfo ] 1
    print[ P_OrbEn ] 0
    print[ P_Cartesian ] 0
end
*xyz 0 1
 C        1.1354030000     0.2019900000     0.2050570000 
 C        2.6309360000     0.0732190000    -0.0170100000 
 S        3.1600690000    -1.5942780000     0.3352480000 
 O        2.9591330000    -1.8412780000     1.7401480000 
 O        2.5537260000    -2.4711420000    -0.6335390000 
 C        4.9168000000    -1.5527490000     0.0241460000 
 C        5.5231040000    -2.9194680000     0.2829680000 
 H        0.8174800000     1.2230960000    -0.0119520000 
 H        0.8763280000    -0.0282970000     1.2390410000 
 H        0.5870650000    -0.4769840000    -0.4488630000 
 H        3.1999310000     0.7294650000     0.6455150000 
 H        2.9088250000     0.2781100000    -1.0534320000 
 H        5.3342730000    -0.7893090000     0.6846180000 
 H        5.0441590000    -1.2398300000    -1.0147200000 
 H        5.3655520000    -3.2230650000     1.3184860000 
 H        6.5969460000    -2.8882120000     0.0913610000 
 H        5.0772700000    -3.6706700000    -0.3698720000 
*
