! RI PBE def2-SVP def2-SVP/J NBO PAL2
% maxcore 2000
% output
    # printlevel mini
    print[ P_Basis ] 0
    print[ P_SCFInfo ] 1
    print[ P_SCFIterInfo ] 1
    print[ P_OrbEn ] 0
    print[ P_Cartesian ] 0
end
*xyz 0 1
 C        3.2361020000     1.3422570000     0.5796800000 
 C        3.2594180000     0.0643370000     0.2347400000 
 S        3.2554310000    -0.3877640000    -1.4624200000 
 O        2.4377720000    -1.5508920000    -1.6259790000 
 O        3.0862430000     0.7962460000    -2.2636820000 
 C        5.0302770000    -0.8576480000    -1.7249280000 
 O        5.3789920000    -1.9813620000    -1.8423330000 
 H        3.2100970000     1.6417070000     1.6214620000 
 H        3.2200900000     2.1162220000    -0.1800230000 
 H        3.2588350000    -0.7696270000     0.9275940000 
 H        5.6838410000     0.0342430000    -1.7959220000 
*
