! RI PBE def2-SVP def2-SVP/J NBO PAL2
% maxcore 2000
% output
    # printlevel mini
    print[ P_Basis ] 0
    print[ P_SCFInfo ] 1
    print[ P_SCFIterInfo ] 1
    print[ P_OrbEn ] 0
    print[ P_Cartesian ] 0
end
*xyz 0 1
 C        1.1787720000    -0.4719140000     0.4057440000 
 C        2.2641540000     0.1917970000    -0.4239420000 
 S        2.3396830000     1.9230280000    -0.0354580000 
 O        1.1390030000     2.5778980000    -0.4816650000 
 O        2.8016390000     2.1020790000     1.3151390000 
 C        3.6802440000     2.5538450000    -1.1092100000 
 O        4.2985670000     1.8725100000    -1.8609180000 
 H        1.1383220000    -1.5342520000     0.1611480000 
 H        0.2021670000    -0.0339780000     0.1963940000 
 H        1.3844930000    -0.3726250000     1.4721230000 
 H        2.0714920000     0.1250070000    -1.4963070000 
 H        3.2563230000    -0.2136850000    -0.2172260000 
 H        3.8284320000     3.6416970000    -0.9594220000 
*
