! RI PBE def2-SVP def2-SVP/J NBO PAL2
% maxcore 2000
% output
    # printlevel mini
    print[ P_Basis ] 0
    print[ P_SCFInfo ] 1
    print[ P_SCFIterInfo ] 1
    print[ P_OrbEn ] 0
    print[ P_Cartesian ] 0
end
*xyz 0 1
 C        1.1309810000     0.0134470000     0.2829080000 
 C        2.6436870000    -0.0575820000     0.1882770000 
 S        3.1412310000    -1.4261600000    -0.8369940000 
 O        2.8964230000    -2.6580700000    -0.1365510000 
 O        2.5998640000    -1.2196970000    -2.1604500000 
 C        4.9206290000    -1.2284740000    -1.0202200000 
 O        5.2284820000    -0.1197270000    -1.7945030000 
 H        0.8434360000     0.8604470000     0.9078640000 
 H        0.7234830000    -0.8950350000     0.7283740000 
 H        0.6863090000     0.1458290000    -0.7038480000 
 H        3.1103480000    -0.2210860000     1.1622460000 
 H        3.0743010000     0.8351820000    -0.2712090000 
 H        5.2393780000    -2.1864850000    -1.4528070000 
 H        5.3682930000    -1.1136340000    -0.0320280000 
 H        4.7283650000    -0.1935540000    -2.6173700000 
*
