! RI PBE def2-SVP def2-SVP/J NBO PAL2
% maxcore 2000
% output
    # printlevel mini
    print[ P_Basis ] 0
    print[ P_SCFInfo ] 1
    print[ P_SCFIterInfo ] 1
    print[ P_OrbEn ] 0
    print[ P_Cartesian ] 0
end
*xyz 0 1
 C        1.0631220000    -0.0813110000     0.1244070000 
 N        2.4361180000    -0.0290030000    -0.2821130000 
 C        3.2366260000     1.1604530000    -0.0798100000 
 C        4.5758270000     0.7466420000    -0.6819780000 
 N        4.5111820000    -0.6902060000    -0.5164990000 
 C        3.2204290000    -1.1237370000    -0.4471750000 
 S        2.7392110000    -2.7025990000    -0.5461210000 
 H        0.4815970000     0.6701780000    -0.4152490000 
 H        0.9578950000     0.0988720000     1.2016380000 
 H        0.6804590000    -1.0755240000    -0.1048920000 
 H        3.3291490000     1.3874440000     0.9920770000 
 H        2.7964770000     2.0271640000    -0.5772570000 
 H        5.4254350000     1.1811600000    -0.1538340000 
 H        4.6353930000     1.0306860000    -1.7404070000 
 H        5.1836790000    -1.3112090000    -0.9316970000 
*
