! RI PBE def2-SVP def2-SVP/J NBO PAL2
% maxcore 2000
% output
    # printlevel mini
    print[ P_Basis ] 0
    print[ P_SCFInfo ] 1
    print[ P_SCFIterInfo ] 1
    print[ P_OrbEn ] 0
    print[ P_Cartesian ] 0
end
*xyz 0 1
 C        0.8757680000    -0.0228580000     0.0385930000 
 N        2.3108670000    -0.0750850000     0.1802400000 
 C        3.0418230000     0.9481840000     0.9418330000 
 C        4.1612700000     0.0048100000     1.4078980000 
 S        3.0696210000    -1.3429100000     0.9608840000 
 O        2.3140480000    -1.7991640000     2.0938900000 
 O        3.6018350000    -2.3109570000     0.0567740000 
 H        0.6109910000     0.8664390000    -0.5364230000 
 H        0.3598250000     0.0037480000     1.0063730000 
 H        0.5355200000    -0.8957040000    -0.5197760000 
 H        2.4627610000     1.3396320000     1.7858080000 
 H        3.3751300000     1.7707210000     0.3074050000 
 H        4.4126870000     0.0212600000     2.4647580000 
 H        5.0483450000     0.0134870000     0.7781450000 
*
