! RI PBE def2-SVP def2-SVP/J NBO PAL2
% maxcore 2000
% output
    # printlevel mini
    print[ P_Basis ] 0
    print[ P_SCFInfo ] 1
    print[ P_SCFIterInfo ] 1
    print[ P_OrbEn ] 0
    print[ P_Cartesian ] 0
end
*xyz 0 1
 C        1.0095200000    -0.0670800000    -0.0314570000 
 N        2.4467950000     0.0087750000    -0.0357160000 
 S        3.2738060000     1.4721400000    -0.0409990000 
 C        4.7726020000     0.6489010000    -0.0438550000 
 C        4.6322050000    -0.6864370000    -0.0408810000 
 C        3.2430100000    -1.1220300000    -0.0360000000 
 N        2.7018790000    -2.2842980000    -0.0322800000 
 H        0.5912430000     0.9393890000    -0.0314970000 
 H        0.6639790000    -0.6056750000     0.8540170000 
 H        0.6587510000    -0.6079180000    -0.9135100000 
 H        5.6887740000     1.2217060000    -0.0476430000 
 H        5.4563490000    -1.3856730000    -0.0419730000 
 H        3.4149990000    -3.0052010000    -0.0329950000 
*
