! RI PBE def2-SVP def2-SVP/J NBO PAL2
% maxcore 2000
% output
    # printlevel mini
    print[ P_Basis ] 0
    print[ P_SCFInfo ] 1
    print[ P_SCFIterInfo ] 1
    print[ P_OrbEn ] 0
    print[ P_Cartesian ] 0
end
*xyz 0 1
 C        0.8744300000    -0.1327270000    -0.0458770000 
 N        2.3154040000    -0.0580620000    -0.0502650000 
 S        3.1504770000     1.3970780000    -0.0547170000 
 C        4.6437370000     0.5652090000    -0.0581690000 
 C        4.4996030000    -0.7708690000    -0.0559940000 
 C        3.1061290000    -1.1981480000    -0.0512030000 
 O        2.6331050000    -2.3187750000    -0.0483600000 
 H        0.4557370000     0.8730610000    -0.0453670000 
 H        0.5292520000    -0.6677670000     0.8408640000 
 H        0.5238440000    -0.6691200000    -0.9296800000 
 H        5.5596650000     1.1385400000    -0.0616970000 
 H        5.3096170000    -1.4848290000    -0.0575350000 
*
