! RI PBE def2-SVP def2-SVP/J NBO PAL2
% maxcore 2000
% output
    # printlevel mini
    print[ P_Basis ] 0
    print[ P_SCFInfo ] 1
    print[ P_SCFIterInfo ] 1
    print[ P_OrbEn ] 0
    print[ P_Cartesian ] 0
end
*xyz 0 1
 C        0.9485810000    -0.0756310000     0.2661440000 
 N        2.3708280000    -0.0386840000     0.0951450000 
 C        3.1531130000    -1.1475810000     0.0266190000 
 N        4.4577830000    -1.0247010000    -0.1318930000 
 S        5.1447600000    -2.5118880000    -0.1805510000 
 C        3.6974440000    -3.3669970000     0.0113070000 
 C        2.6623740000    -2.4866490000     0.1152030000 
 H        0.5698100000     0.9456290000     0.2885520000 
 H        0.6571000000    -0.5589550000     1.2063500000 
 H        0.4462100000    -0.5984780000    -0.5565320000 
 H        2.8441500000     0.8423340000     0.0191060000 
 H        3.6556740000    -4.4461900000     0.0404450000 
 H        1.6268650000    -2.7660080000     0.2450860000 
*
