! RI PBE def2-SVP def2-SVP/J NBO PAL2
% maxcore 2000
% output
    # printlevel mini
    print[ P_Basis ] 0
    print[ P_SCFInfo ] 1
    print[ P_SCFIterInfo ] 1
    print[ P_OrbEn ] 0
    print[ P_Cartesian ] 0
end
*xyz 0 1
 C        1.7355230000    -0.3999290000     1.0339500000 
 N        2.6297090000    -0.0304840000    -0.0238870000 
 C        3.2243100000    -0.9449970000    -0.8491220000 
 C        4.0924870000    -0.6798570000    -1.8856560000 
 S        4.5564610000    -2.1423730000    -2.6084510000 
 N        3.6748480000    -3.0978470000    -1.6280990000 
 C        3.0294570000    -2.3546410000    -0.7586090000 
 H        1.3976210000     0.5020960000     1.5433370000 
 H        2.2197780000    -1.0421490000     1.7801280000 
 H        0.8469700000    -0.9243110000     0.6608250000 
 H        2.8305750000     0.9392170000    -0.1678170000 
 H        4.4521850000     0.2800300000    -2.2256330000 
 H        2.3930660000    -2.8431450000    -0.0297760000 
*
