! RI PBE def2-SVP def2-SVP/J NBO PAL2
% maxcore 2000
% output
    # printlevel mini
    print[ P_Basis ] 0
    print[ P_SCFInfo ] 1
    print[ P_SCFIterInfo ] 1
    print[ P_OrbEn ] 0
    print[ P_Cartesian ] 0
end
*xyz 0 1
 C        3.3250650000    -1.2394970000     0.3692950000 
 N        2.6980220000     0.0452740000     0.2699460000 
 C        3.2989000000     1.1335090000    -0.2576470000 
 N        2.7340480000     2.3031680000    -0.3502630000 
 C        3.5906440000     3.1956060000    -0.9254830000 
 C        4.8128820000     2.7313190000    -1.2798760000 
 S        4.9260140000     1.0588630000    -0.8751910000 
 H        2.6296890000    -1.9397270000     0.8297710000 
 H        4.2299010000    -1.2028440000     0.9877320000 
 H        3.6015530000    -1.6335040000    -0.6160200000 
 H        1.7600060000     0.1854150000     0.6000170000 
 H        3.2621690000     4.2168920000    -1.0709010000 
 H        5.6351150000     3.2527360000    -1.7420800000 
*
