! RI PBE def2-SVP def2-SVP/J NBO PAL2
% maxcore 2000
% output
    # printlevel mini
    print[ P_Basis ] 0
    print[ P_SCFInfo ] 1
    print[ P_SCFIterInfo ] 1
    print[ P_OrbEn ] 0
    print[ P_Cartesian ] 0
end
*xyz 0 1
 C        0.9619980000    -0.0921050000     0.2030040000 
 N        2.3981990000    -0.0759400000     0.1548680000 
 C        2.9445100000     0.6671400000    -0.7089130000 
 N        4.3069460000     0.7862690000    -0.8736710000 
 C        4.7256510000     1.6395440000    -1.8611600000 
 C        3.7282560000     2.2359040000    -2.5247690000 
 S        2.1753180000     1.7310790000    -1.9136940000 
 H        0.6267130000    -0.7700490000     0.9884790000 
 H        0.5214610000    -0.4327000000    -0.7458620000 
 H        0.5453760000     0.9033210000     0.4174480000 
 H        4.9191410000     0.2560110000    -0.2779230000 
 H        5.7838320000     1.7707220000    -2.0334270000 
 H        3.8103800000     2.9406950000    -3.3349900000 
*
