! RI PBE def2-SVP def2-SVP/J NBO PAL2
% maxcore 2000
% output
    # printlevel mini
    print[ P_Basis ] 0
    print[ P_SCFInfo ] 1
    print[ P_SCFIterInfo ] 1
    print[ P_OrbEn ] 0
    print[ P_Cartesian ] 0
end
*xyz 0 1
 C        1.3611720000     0.2631240000     0.1026970000 
 N        2.1309980000    -0.3895840000    -0.9364540000 
 C        2.4785400000    -1.7731060000    -0.6842600000 
 S        3.1630180000     0.5203010000    -1.8257360000 
 C        4.5483750000     0.8750790000    -0.7781070000 
 O        3.6415820000    -0.3075070000    -2.8904840000 
 O        2.5055320000     1.7636950000    -2.0895800000 
 H        1.8948120000     0.2917130000     1.0631670000 
 H        0.4303660000    -0.2900530000     0.2475480000 
 H        1.1150810000     1.2764590000    -0.2068340000 
 H        3.0928840000    -1.8919520000     0.2193600000 
 H        3.0110570000    -2.1782260000    -1.5418850000 
 H        1.5579960000    -2.3450420000    -0.5468650000 
 H        5.0283000000    -0.0583440000    -0.4848500000 
 H        4.2090090000     1.4355490000     0.0926970000 
 H        5.2413880000     1.4808040000    -1.3618260000 
*
