! RI PBE def2-SVP def2-SVP/J NBO PAL2
% maxcore 2000
% output
    # printlevel mini
    print[ P_Basis ] 0
    print[ P_SCFInfo ] 1
    print[ P_SCFIterInfo ] 1
    print[ P_OrbEn ] 0
    print[ P_Cartesian ] 0
end
*xyz 0 1
 C        3.1542900000    -2.6462290000    -2.5930460000 
 N        3.0035730000    -1.2429710000    -2.2558240000 
 C        3.6702550000    -0.6302090000    -1.2318120000 
 S        2.8877430000     0.4874100000    -0.2746370000 
 N        4.9690170000    -0.9817300000    -1.0701790000 
 C        5.6971480000    -0.5406180000     0.0965050000 
 C        5.7992140000    -1.3824690000    -2.1882090000 
 H        2.1671630000    -3.1065470000    -2.6597630000 
 H        3.7148530000    -3.1663120000    -1.8144440000 
 H        3.6641240000    -2.8010030000    -3.5484900000 
 H        2.0685700000    -0.8770140000    -2.3280860000 
 H        5.0366840000    -0.5292020000     0.9605110000 
 H        6.0981100000     0.4705980000    -0.0371220000 
 H        6.5248300000    -1.2321760000     0.2712940000 
 H        5.2580840000    -1.2614780000    -3.1237760000 
 H        6.1402370000    -2.4191530000    -2.1016330000 
 H        6.6815930000    -0.7365080000    -2.2250880000 
*
