! RI PBE def2-SVP def2-SVP/J NBO PAL2
% maxcore 2000
% output
    # printlevel mini
    print[ P_Basis ] 0
    print[ P_SCFInfo ] 1
    print[ P_SCFIterInfo ] 1
    print[ P_OrbEn ] 0
    print[ P_Cartesian ] 0
end
*xyz 0 1
 C        3.0679260000     0.3858340000     1.4391140000 
 N        3.0032690000     0.0015130000     0.0385610000 
 S        3.2019630000     1.1347490000    -1.1244540000 
 O        2.4268720000     0.7017650000    -2.2488760000 
 O        3.0217390000     2.4442890000    -0.5706770000 
 C        4.8999730000     1.0251150000    -1.5550980000 
 C        5.7209050000     0.0755220000    -1.1438180000 
 H        3.0311440000    -0.5212040000     2.0436740000 
 H        2.2574740000     1.0560850000     1.7349880000 
 H        4.0164550000     0.8850280000     1.6363290000 
 H        2.2591180000    -0.6291960000    -0.2234880000 
 H        5.2016160000     1.8414870000    -2.2032860000 
 H        5.3765130000    -0.7199520000    -0.4939150000 
 H        6.7599330000     0.0712650000    -1.4525620000 
*
