! RI PBE def2-SVP def2-SVP/J NBO PAL2
% maxcore 2000
% output
    # printlevel mini
    print[ P_Basis ] 0
    print[ P_SCFInfo ] 1
    print[ P_SCFIterInfo ] 1
    print[ P_OrbEn ] 0
    print[ P_Cartesian ] 0
end
*xyz 0 1
 C        1.0184400000    -0.0792620000     0.0637980000 
 N        2.4236740000     0.0002060000     0.4180730000 
 S        3.0046510000    -0.8280170000     1.6810800000 
 O        4.3997960000    -0.5532680000     1.7469720000 
 O        2.1278860000    -0.6213320000     2.7833370000 
 C        2.8373180000    -2.4801320000     1.2357230000 
 C        2.7047930000    -3.6271950000     0.9055670000 
 H        0.7810920000     0.7545770000    -0.5970150000 
 H        0.4246290000     0.0211970000     0.9707690000 
 H        0.7588120000    -1.0194130000    -0.4343670000 
 H        3.0872830000     0.0374480000    -0.3433940000 
 H        2.5964140000    -4.6501100000     0.6265680000 
*
