! RI PBE def2-SVP def2-SVP/J NBO PAL2
% maxcore 2000
% output
    # printlevel mini
    print[ P_Basis ] 0
    print[ P_SCFInfo ] 1
    print[ P_SCFIterInfo ] 1
    print[ P_OrbEn ] 0
    print[ P_Cartesian ] 0
end
*xyz 0 1
 C        2.3061460000    -1.3070400000     0.4985880000 
 O        2.0884660000     0.0420110000     0.1509860000 
 C        2.7902090000     0.9667810000     0.8214260000 
 C        2.7033330000     2.3129060000     0.6145890000 
 C        3.5654830000     3.0375280000     1.4730290000 
 C        4.2879500000     2.2464820000     2.3109050000 
 S        3.9291780000     0.5873590000     2.0687650000 
 H        1.6577020000    -1.9004130000    -0.1431390000 
 H        2.0474440000    -1.4895290000     1.5474470000 
 H        3.3497060000    -1.5936610000     0.3277910000 
 H        2.0454760000     2.7486520000    -0.1242400000 
 H        3.6453460000     4.1167830000     1.4667710000 
 H        5.0109520000     2.5329410000     3.0580810000 
*
