! RI PBE def2-SVP def2-SVP/J NBO PAL2
% maxcore 2000
% output
    # printlevel mini
    print[ P_Basis ] 0
    print[ P_SCFInfo ] 1
    print[ P_SCFIterInfo ] 1
    print[ P_OrbEn ] 0
    print[ P_Cartesian ] 0
end
*xyz 0 1
 C        1.9468430000    -0.5282790000     1.1633720000 
 O        2.6551100000     0.1170590000     0.1220180000 
 C        3.1781880000    -0.6707970000    -0.8151060000 
 C        3.8970870000    -0.2448490000    -1.9022430000 
 C        4.2891210000    -1.3539090000    -2.6736470000 
 N        3.9284740000    -2.5474050000    -2.2587760000 
 S        3.0676740000    -2.3894920000    -0.8681070000 
 H        1.5933240000     0.2552210000     1.8299960000 
 H        2.6033630000    -1.2102650000     1.7136610000 
 H        1.0921500000    -1.0841140000     0.7640040000 
 H        4.1181070000     0.7906250000    -2.1160340000 
 H        4.8694490000    -1.2866850000    -3.5880580000 
*
