! RI PBE def2-SVP def2-SVP/J NBO PAL2
% maxcore 2000
% output
    # printlevel mini
    print[ P_Basis ] 0
    print[ P_SCFInfo ] 1
    print[ P_SCFIterInfo ] 1
    print[ P_OrbEn ] 0
    print[ P_Cartesian ] 0
end
*xyz 0 1
 C        1.0367840000    -0.0458740000    -0.0558100000 
 O        2.3208410000     0.0978670000     0.5020250000 
 C        2.9786720000    -1.0401010000     0.8145430000 
 C        4.2329140000    -0.9985770000     1.3620090000 
 S        4.8255650000    -2.5677230000     1.6553850000 
 C        3.4132090000    -3.2951680000     1.0537820000 
 C        2.5027210000    -2.3687580000     0.6354950000 
 H        0.6676050000     0.9619100000    -0.2391210000 
 H        0.3547530000    -0.5579260000     0.6321470000 
 H        1.0696430000    -0.5936730000    -1.0042240000 
 H        4.8129060000    -0.1204150000     1.5963970000 
 H        3.3164970000    -4.3697470000     1.0349670000 
 H        1.5399690000    -2.6305170000     0.2203060000 
*
