! RI PBE def2-SVP def2-SVP/J NBO PAL2
% maxcore 2000
% output
    # printlevel mini
    print[ P_Basis ] 0
    print[ P_SCFInfo ] 1
    print[ P_SCFIterInfo ] 1
    print[ P_OrbEn ] 0
    print[ P_Cartesian ] 0
end
*xyz 0 1
 C        2.6628080000    -1.2355520000     0.7727620000 
 O        2.3145100000     0.0522020000     0.3147520000 
 C        3.0100270000     1.0831880000     0.8115460000 
 N        2.6897260000     2.2809370000     0.3889500000 
 S        3.6535250000     3.3805810000     1.1154960000 
 C        4.5348680000     2.2605290000     2.0261680000 
 C        4.0703420000     1.0052510000     1.7600460000 
 H        1.9966800000    -1.9289040000     0.2629810000 
 H        2.5184630000    -1.3280480000     1.8542180000 
 H        3.6994600000    -1.4826870000     0.5213320000 
 H        5.3308130000     2.5468360000     2.6982200000 
 H        4.4558890000     0.1010570000     2.2064290000 
*
