! RI PBE def2-SVP def2-SVP/J NBO PAL2
% maxcore 2000
% output
    # printlevel mini
    print[ P_Basis ] 0
    print[ P_SCFInfo ] 1
    print[ P_SCFIterInfo ] 1
    print[ P_OrbEn ] 0
    print[ P_Cartesian ] 0
end
*xyz 0 1
 C        1.9034230000    -0.5178350000     1.3402060000 
 O        2.5447930000    -0.0350890000     0.1769880000 
 C        3.0271250000    -0.9396480000    -0.6691280000 
 N        3.6287990000    -0.5982810000    -1.7573150000 
 C        4.0246400000    -1.7087900000    -2.4442880000 
 C        3.7284560000    -2.9082030000    -1.8859960000 
 S        2.8994230000    -2.6567270000    -0.4024790000 
 H        1.5825630000     0.3597740000     1.8968250000 
 H        2.5937800000    -1.1074360000     1.9522450000 
 H        1.0309520000    -1.1270750000     1.0824250000 
 H        4.5463860000    -1.5848300000    -3.3842380000 
 H        3.9421690000    -3.9010610000    -2.2481560000 
*
