! RI PBE def2-SVP def2-SVP/J NBO PAL2
% maxcore 2000
% output
    # printlevel mini
    print[ P_Basis ] 0
    print[ P_SCFInfo ] 1
    print[ P_SCFIterInfo ] 1
    print[ P_OrbEn ] 0
    print[ P_Cartesian ] 0
end
*xyz 0 1
 C        3.5530000000    -0.2724740000    -1.2748940000 
 O        3.2776100000    -0.7730830000     0.0236130000 
 C        3.5244180000     0.1150350000     1.0519300000 
 S        5.2315520000     0.0820400000     1.6486940000 
 C        5.4367180000    -1.5872520000     2.1994000000 
 O        6.1133810000     0.2868000000     0.5293550000 
 O        5.2855090000     0.9622590000     2.7847740000 
 H        3.2613460000    -1.0550530000    -1.9738220000 
 H        4.6126290000    -0.0405800000    -1.3994530000 
 H        2.9555760000     0.6255110000    -1.4720740000 
 H        2.8978880000    -0.1422900000     1.9094260000 
 H        3.3549880000     1.1666650000     0.7841710000 
 H        5.2058980000    -2.2604220000     1.3749800000 
 H        4.7908000000    -1.7687230000     3.0571190000 
 H        6.4846740000    -1.6800540000     2.4854910000 
*
