! RI PBE def2-SVP def2-SVP/J NBO PAL2
% maxcore 2000
% output
    # printlevel mini
    print[ P_Basis ] 0
    print[ P_SCFInfo ] 1
    print[ P_SCFIterInfo ] 1
    print[ P_OrbEn ] 0
    print[ P_Cartesian ] 0
end
*xyz 0 1
 C        1.3115410000    -0.5772020000    -0.1457230000 
 O        2.7180470000    -0.3119880000    -0.2447780000 
 S        3.1181980000     0.9336320000    -1.1449500000 
 O        2.6156710000     0.7214920000    -2.4669930000 
 O        2.7942070000     2.1419790000    -0.4548700000 
 C        4.8459060000     0.6730620000    -1.1381670000 
 C        5.6557740000     1.5782870000    -0.6192480000 
 H        1.2272000000    -1.4575610000     0.4869090000 
 H        0.8952050000    -0.7792080000    -1.1333750000 
 H        0.7991850000     0.2672030000     0.3182610000 
 H        5.1652180000    -0.2338850000    -1.6372760000 
 H        5.2598380000     2.4686440000    -0.1446140000 
 H        6.7312000000     1.4512340000    -0.6620880000 
*
