! RI PBE def2-SVP def2-SVP/J NBO PAL2
% maxcore 2000
% output
    # printlevel mini
    print[ P_Basis ] 0
    print[ P_SCFInfo ] 1
    print[ P_SCFIterInfo ] 1
    print[ P_OrbEn ] 0
    print[ P_Cartesian ] 0
end
*xyz 0 1
 C        2.5413830000    -0.7898660000    -1.1082090000 
 O        2.4194650000    -0.1341360000     0.1626260000 
 S        2.8465920000    -0.9314900000     1.4457610000 
 O        2.4572500000    -0.1305680000     2.5463790000 
 O        2.4504030000    -2.2921480000     1.3215090000 
 C        4.5513210000    -0.8852890000     1.3208170000 
 C        5.7493090000    -0.8722590000     1.2578980000 
 H        2.1255350000    -0.0915470000    -1.8304110000 
 H        1.9794470000    -1.7226500000    -1.1064620000 
 H        3.5929360000    -0.9783640000    -1.3349500000 
 H        6.8142490000    -0.8587750000     1.2104420000 
*
