! RI PBE def2-SVP def2-SVP/J NBO PAL2
% maxcore 2000
% output
    # printlevel mini
    print[ P_Basis ] 0
    print[ P_SCFInfo ] 1
    print[ P_SCFIterInfo ] 1
    print[ P_OrbEn ] 0
    print[ P_Cartesian ] 0
end
*xyz 0 1
 C        4.1657810000    -0.5082590000     0.8444520000 
 S        2.7276290000    -0.0779250000    -0.0945320000 
 O        2.2131710000    -1.2827880000    -0.6842770000 
 O        1.8827830000     0.7355800000     0.7404670000 
 C        3.3587170000     0.9413030000    -1.3808720000 
 C        2.4466840000     2.0080040000    -1.9060360000 
 C        3.6427930000     2.3858130000    -1.1009180000 
 H        3.8148020000    -1.1521840000     1.6514800000 
 H        4.6195720000     0.3946140000     1.2497640000 
 H        4.8616390000    -1.0530840000     0.2075150000 
 H        3.9792400000     0.3928140000    -2.0792770000 
 H        1.4806310000     2.1027550000    -1.4271250000 
 H        2.4571340000     2.1684350000    -2.9760630000 
 H        3.4607920000     2.7369920000    -0.0927160000 
 H        4.4987300000     2.8214220000    -1.6007620000 
*
