! RI PBE def2-SVP def2-SVP/J NBO PAL2
% maxcore 2000
% output
    # printlevel mini
    print[ P_Basis ] 0
    print[ P_SCFInfo ] 1
    print[ P_SCFIterInfo ] 1
    print[ P_OrbEn ] 0
    print[ P_Cartesian ] 0
end
*xyz 0 1
 C        1.0807860000    -0.1112140000    -0.0854730000 
 S        2.8018340000     0.1212910000     0.2515880000 
 O        2.9180830000     0.9235000000     1.4362730000 
 O        3.4476610000    -1.1648030000     0.1700750000 
 C        3.3679270000     1.0691350000    -1.1318090000 
 C        4.8004220000     0.9368200000    -1.4552220000 
 N        3.7837350000     0.3748090000    -2.3328350000 
 H        0.6954140000    -0.7254110000     0.7290880000 
 H        0.9620930000    -0.6274350000    -1.0373170000 
 H        0.5824270000     0.8573040000    -0.0928070000 
 H        2.8438930000     2.0118610000    -1.2527280000 
 H        5.3856750000     0.2552220000    -0.8475880000 
 H        5.3220630000     1.8056230000    -1.8386710000 
 H        3.7333880000    -0.6293920000    -2.1732740000 
*
