! RI PBE def2-SVP def2-SVP/J NBO PAL2
% maxcore 2000
% output
    # printlevel mini
    print[ P_Basis ] 0
    print[ P_SCFInfo ] 1
    print[ P_SCFIterInfo ] 1
    print[ P_OrbEn ] 0
    print[ P_Cartesian ] 0
end
*xyz 0 1
 C        3.6966580000     0.4907280000     1.6472040000 
 S        3.0260590000    -0.1275350000     0.1304340000 
 O        3.7206130000    -1.3426780000    -0.1994300000 
 O        1.5930160000    -0.1217990000     0.2384590000 
 C        3.4730360000     1.1090230000    -1.0897300000 
 C        4.9398650000     1.2234520000    -1.3039630000 
 C        5.6323720000     2.3358300000    -1.1013420000 
 H        3.4650640000    -0.2667970000     2.3965460000 
 H        3.2121730000     1.4321540000     1.9025230000 
 H        4.7744370000     0.6083940000     1.5474220000 
 H        3.0105150000     2.0494670000    -0.7839820000 
 H        2.9538600000     0.7416980000    -1.9816680000 
 H        5.4392660000     0.3206000000    -1.6430710000 
 H        5.1561820000     3.2517200000    -0.7648310000 
 H        6.7007830000     2.3734430000    -1.2772910000 
*
