! RI PBE def2-SVP def2-SVP/J NBO PAL2
% maxcore 2000
% output
    # printlevel mini
    print[ P_Basis ] 0
    print[ P_SCFInfo ] 1
    print[ P_SCFIterInfo ] 1
    print[ P_OrbEn ] 0
    print[ P_Cartesian ] 0
end
*xyz 0 1
 C        1.0418170000     0.3241430000     0.0714290000 
 S        2.7932080000     0.0856600000    -0.0533450000 
 O        3.1544280000    -1.0190300000     0.7863450000 
 O        3.1477120000     0.0978680000    -1.4426130000 
 C        3.4270700000     1.6037310000     0.7054510000 
 C        4.8693270000     1.6147260000     0.7064750000 
 C        6.0675190000     1.6136130000     0.7021520000 
 H        0.5977650000    -0.5669510000    -0.3735380000 
 H        0.7484600000     1.2077130000    -0.4938590000 
 H        0.7533590000     0.3998870000     1.1189800000 
 H        3.0262040000     1.6368130000     1.7220510000 
 H        3.0212350000     2.4369410000     0.1255170000 
 H        7.1319960000     1.6075880000     0.6947550000 
*
