! RI PBE def2-SVP def2-SVP/J NBO PAL2
% maxcore 2000
% output
    # printlevel mini
    print[ P_Basis ] 0
    print[ P_SCFInfo ] 1
    print[ P_SCFIterInfo ] 1
    print[ P_OrbEn ] 0
    print[ P_Cartesian ] 0
end
*xyz 0 1
 C        1.1907800000     0.1019640000     0.0003580000 
 S        2.9487210000    -0.0544080000    -0.1217620000 
 O        3.3489950000    -1.2433570000     0.5671970000 
 O        3.3338360000     0.1843610000    -1.4793890000 
 C        3.5056640000     1.3657260000     0.8648840000 
 C        4.9494180000     1.4309790000     0.8994360000 
 N        6.0952120000     1.4984500000     0.9378750000 
 H        0.7911990000    -0.7320620000    -0.5782350000 
 H        0.8716830000     1.0455270000    -0.4402040000 
 H        0.8826880000     0.0125170000     1.0411810000 
 H        3.1087770000     1.2444760000     1.8750430000 
 H        3.0976270000     2.2691350000     0.4066270000 
*
