! RI PBE def2-SVP def2-SVP/J NBO PAL2
% maxcore 2000
% output
    # printlevel mini
    print[ P_Basis ] 0
    print[ P_SCFInfo ] 1
    print[ P_SCFIterInfo ] 1
    print[ P_OrbEn ] 0
    print[ P_Cartesian ] 0
end
*xyz 0 1
 C        1.0379910000    -0.4033800000    -0.8417040000 
 S        2.5405410000    -0.0265640000    -0.0169400000 
 O        3.1975930000    -1.2274340000     0.3850620000 
 O        3.2649100000     0.9672700000    -0.7401940000 
 O        1.8757810000     0.6583580000     1.2790680000 
 C        2.7378980000     1.1332800000     2.2485320000 
 C        2.2666800000     1.7049680000     3.3390070000 
 H        1.3243570000    -0.8901990000    -1.7738450000 
 H        0.5025960000     0.5222850000    -1.0429630000 
 H        0.4533110000    -1.0796100000    -0.2213250000 
 H        3.7926310000     0.9984350000     2.0385320000 
 H        1.2041010000     1.8199960000     3.5097950000 
 H        2.9588290000     2.0696950000     4.0845550000 
*
