! RI PBE def2-SVP def2-SVP/J NBO PAL2
% maxcore 2000
% output
    # printlevel mini
    print[ P_Basis ] 0
    print[ P_SCFInfo ] 1
    print[ P_SCFIterInfo ] 1
    print[ P_OrbEn ] 0
    print[ P_Cartesian ] 0
end
*xyz 0 1
 N        0.8371110000     0.0722380000     0.0794010000 
 C        2.2073110000     0.0187470000     0.0856460000 
 C        3.1104330000     1.0363290000     0.0881370000 
 C        4.4673690000     0.5808410000     0.0949240000 
 C        4.5649410000    -0.7676450000     0.0974320000 
 O        5.6419740000    -1.5905620000     0.1035250000 
 S        3.0050770000    -1.5243230000     0.0915960000 
 H        0.3737520000     0.9591070000     0.0760800000 
 H        0.2781710000    -0.7563940000     0.0782720000 
 H        2.8274040000     2.0808380000     0.0852610000 
 H        5.3254160000     1.2420170000     0.0977570000 
 H        6.4357400000    -1.0479030000     0.1062600000 
*
