! RI PBE def2-SVP def2-SVP/J NBO PAL2
% maxcore 2000
% output
    # printlevel mini
    print[ P_Basis ] 0
    print[ P_SCFInfo ] 1
    print[ P_SCFIterInfo ] 1
    print[ P_OrbEn ] 0
    print[ P_Cartesian ] 0
end
*xyz 0 1
 N        0.9695100000     0.0247480000     0.0309420000 
 C        2.3320790000    -0.0430530000     0.0369100000 
 C        3.2326570000     0.9873560000     0.0406180000 
 C        4.5783940000     0.5213510000     0.0464990000 
 O        5.6611890000     1.3392250000     0.0510180000 
 C        4.6952000000    -0.8317660000     0.0472370000 
 S        3.1353550000    -1.5679110000     0.0406360000 
 H        0.5090650000     0.9133280000     0.0293570000 
 H        0.4067820000    -0.8022750000     0.0292360000 
 H        2.9498010000     2.0333160000     0.0392060000 
 H        5.3626190000     2.2514070000     0.0496370000 
 H        5.5919480000    -1.4280360000     0.0512040000 
*
