! RI PBE def2-SVP def2-SVP/J NBO PAL2
% maxcore 2000
% output
    # printlevel mini
    print[ P_Basis ] 0
    print[ P_SCFInfo ] 1
    print[ P_SCFIterInfo ] 1
    print[ P_OrbEn ] 0
    print[ P_Cartesian ] 0
end
*xyz 0 1
 N        0.8568400000     0.2927720000     0.0853040000 
 C        2.2512030000     0.1182760000     0.0572470000 
 C        3.1557930000     1.1484330000     0.0711100000 
 N        2.7851150000     2.4857520000     0.0438960000 
 C        4.5021180000     0.6875970000     0.0453790000 
 C        4.5942560000    -0.6696390000     0.0152570000 
 S        3.0619670000    -1.4140820000    -0.0091070000 
 H        0.4065350000     0.0972100000    -0.7997560000 
 H        0.3996490000    -0.2416860000     0.8115210000 
 H        1.8081940000     2.6043220000     0.2761620000 
 H        3.3773880000     3.0906340000     0.5914420000 
 H        5.3618090000     1.3457790000     0.0476990000 
 H        5.4920230000    -1.2685690000     0.0032450000 
*
