! RI PBE def2-SVP def2-SVP/J NBO PAL2
% maxcore 2000
% output
    # printlevel mini
    print[ P_Basis ] 0
    print[ P_SCFInfo ] 1
    print[ P_SCFIterInfo ] 1
    print[ P_OrbEn ] 0
    print[ P_Cartesian ] 0
end
*xyz 0 1
 N        1.0252590000     0.0213650000    -0.0773190000 
 C        2.3884790000     0.1304190000    -0.0722100000 
 C        3.1472280000     1.2683540000    -0.0681610000 
 S        4.8264370000     0.9251150000    -0.0625760000 
 C        4.5468390000    -0.7605350000    -0.0655360000 
 C        3.2144940000    -1.0355800000    -0.0706160000 
 O        2.6036940000    -2.2520320000    -0.0741890000 
 H        0.4367190000     0.8291280000    -0.0776720000 
 H        0.6058870000    -0.8875410000    -0.0790690000 
 H        2.8016740000     2.2903680000    -0.0682210000 
 H        5.3688380000    -1.4602580000    -0.0634060000 
 H        3.2675300000    -2.9456930000    -0.0727260000 
*
