! RI PBE def2-SVP def2-SVP/J NBO PAL2
% maxcore 2000
% output
    # printlevel mini
    print[ P_Basis ] 0
    print[ P_SCFInfo ] 1
    print[ P_SCFIterInfo ] 1
    print[ P_OrbEn ] 0
    print[ P_Cartesian ] 0
end
*xyz 0 1
 N        0.9304500000     0.3483970000    -0.0608200000 
 C        2.3187630000     0.1297180000    -0.0746830000 
 C        3.2256580000     1.1450100000     0.0598060000 
 O        2.8748510000     2.4360360000     0.2165360000 
 C        4.5738500000     0.7103750000     0.0186390000 
 C        4.6640780000    -0.6378360000    -0.1477140000 
 S        3.1349220000    -1.3870260000    -0.2550440000 
 H        0.4695410000     0.1003870000    -0.9264470000 
 H        0.4539230000    -0.1026010000     0.7091020000 
 H        1.9060420000     2.4476400000     0.2086070000 
 H        5.4214720000     1.3754250000     0.1091630000 
 H        5.5615490000    -1.2336250000    -0.2130360000 
*
