! RI PBE def2-SVP def2-SVP/J NBO PAL2
% maxcore 2000
% output
    # printlevel mini
    print[ P_Basis ] 0
    print[ P_SCFInfo ] 1
    print[ P_SCFIterInfo ] 1
    print[ P_OrbEn ] 0
    print[ P_Cartesian ] 0
end
*xyz 0 1
 N        1.4191000000    -0.3042230000    -0.8672990000 
 C        2.6727830000    -0.0776180000    -0.1692220000 
 C        3.0909080000     1.3545600000    -0.2897030000 
 C        2.3016020000     2.4584360000    -0.4406800000 
 C        3.0419730000     3.6662680000    -0.4887270000 
 C        4.3840590000     3.4638250000    -0.3735590000 
 S        4.7453480000     1.8025530000    -0.2168290000 
 H        1.0941660000    -1.2501030000    -0.7147790000 
 H        1.5429790000    -0.1782670000    -1.8645580000 
 H        3.5009040000    -0.7202720000    -0.5062890000 
 H        2.5110270000    -0.3193350000     0.8877880000 
 H        1.2246280000     2.3903450000    -0.5150850000 
 H        2.5962480000     4.6456600000    -0.6050020000 
 H        5.1767640000     4.1961720000    -0.3776540000 
*
