! RI PBE def2-SVP def2-SVP/J NBO PAL2
% maxcore 2000
% output
    # printlevel mini
    print[ P_Basis ] 0
    print[ P_SCFInfo ] 1
    print[ P_SCFIterInfo ] 1
    print[ P_OrbEn ] 0
    print[ P_Cartesian ] 0
end
*xyz 0 1
 N        1.6512660000     0.5892940000    -0.7513110000 
 C        2.3589610000    -0.2309180000     0.2152790000 
 C        2.9783340000    -1.4182440000    -0.4501600000 
 C        3.4134560000    -1.5451020000    -1.7423650000 
 C        3.9590940000    -2.8296770000    -1.9563300000 
 N        3.9580770000    -3.6532860000    -0.9334290000 
 S        3.2779590000    -2.8926650000     0.3485960000 
 H        1.3215950000     1.4422040000    -0.3185200000 
 H        0.8431630000     0.0964230000    -1.1113730000 
 H        1.7413730000    -0.5750040000     1.0589620000 
 H        3.1571620000     0.3800500000     0.6514930000 
 H        3.3384680000    -0.7596320000    -2.4808520000 
 H        4.3728910000    -3.1769530000    -2.8972910000 
*
