! RI PBE def2-SVP def2-SVP/J NBO PAL2
% maxcore 2000
% output
    # printlevel mini
    print[ P_Basis ] 0
    print[ P_SCFInfo ] 1
    print[ P_SCFIterInfo ] 1
    print[ P_OrbEn ] 0
    print[ P_Cartesian ] 0
end
*xyz 0 1
 N        3.5073780000     0.6068560000    -0.6698230000 
 C        2.5752600000    -0.3710470000    -0.1367460000 
 C        3.0273490000    -0.9015820000     1.1904820000 
 C        3.9494330000    -0.2933550000     1.9934520000 
 S        4.2046880000    -1.1611430000     3.4392440000 
 C        3.0768650000    -2.3601910000     2.9960690000 
 C        2.5302820000    -2.0982500000     1.7759860000 
 H        3.1395950000     1.0266300000    -1.5132650000 
 H        4.3847150000     0.1613710000    -0.9105780000 
 H        2.3904140000    -1.2258470000    -0.8064550000 
 H        1.6071930000     0.1274840000    -0.0088470000 
 H        4.4736000000     0.6287990000     1.7959670000 
 H        2.8804900000    -3.1969980000     3.6489410000 
 H        1.7962490000    -2.7396360000     1.3034650000 
*
