! RI PBE def2-SVP def2-SVP/J NBO PAL2
% maxcore 2000
% output
    # printlevel mini
    print[ P_Basis ] 0
    print[ P_SCFInfo ] 1
    print[ P_SCFIterInfo ] 1
    print[ P_OrbEn ] 0
    print[ P_Cartesian ] 0
end
*xyz 0 1
 N        1.3596550000    -0.8266400000     0.1749420000 
 C        2.2709550000     0.2426190000    -0.2009680000 
 C        3.0889220000    -0.1410440000    -1.3974660000 
 N        4.3375980000     0.2640280000    -1.4866010000 
 S        4.9819490000    -0.2527990000    -2.8995910000 
 C        3.5869100000    -1.0542570000    -3.4308600000 
 C        2.6097260000    -0.9088170000    -2.4898230000 
 H        0.7166540000    -0.5089580000     0.8882000000 
 H        1.8725090000    -1.6102530000     0.5604460000 
 H        2.9628690000     0.5659840000     0.5871780000 
 H        1.6659470000     1.1168880000    -0.4670910000 
 H        3.5390960000    -1.5799500000    -4.3735330000 
 H        1.6119890000    -1.3191820000    -2.5464430000 
*
