! RI PBE def2-SVP def2-SVP/J NBO PAL2
% maxcore 2000
% output
    # printlevel mini
    print[ P_Basis ] 0
    print[ P_SCFInfo ] 1
    print[ P_SCFIterInfo ] 1
    print[ P_OrbEn ] 0
    print[ P_Cartesian ] 0
end
*xyz 0 1
 N        0.9279420000     0.2354270000    -0.0690240000 
 C        2.0778020000     0.1546870000    -0.0654300000 
 C        3.4838040000     0.0573290000    -0.0610430000 
 C        4.3981090000     1.0802170000    -0.0606120000 
 N        5.6970910000     0.7017810000    -0.0559130000 
 C        5.7938830000    -0.5939380000    -0.0527350000 
 S        4.3121790000    -1.4470980000    -0.0552500000 
 H        4.1340670000     2.1292440000    -0.0637310000 
 H        6.7357050000    -1.1272500000    -0.0487520000 
*
