! RI PBE def2-SVP def2-SVP/J NBO PAL2
% maxcore 2000
% output
    # printlevel mini
    print[ P_Basis ] 0
    print[ P_SCFInfo ] 1
    print[ P_SCFIterInfo ] 1
    print[ P_OrbEn ] 0
    print[ P_Cartesian ] 0
end
*xyz 0 1
 N        3.0815280000     0.4511200000    -1.0862840000 
 C        2.4059910000    -0.2845420000    -0.0332540000 
 C        2.8505120000     0.2007870000     1.3100460000 
 C        3.4407680000     1.3850700000     1.6385080000 
 N        3.7285040000     1.5728410000     2.9599910000 
 C        3.3645490000     0.5431330000     3.6530830000 
 S        2.6542750000    -0.7274080000     2.7399170000 
 H        2.6938910000     0.2140150000    -1.9897280000 
 H        4.0676590000     0.2216160000    -1.1046010000 
 H        2.5428250000    -1.3757760000    -0.0843260000 
 H        1.3297570000    -0.1080240000    -0.1406970000 
 H        3.6801420000     2.1549820000     0.9182660000 
 H        3.4839000000     0.4568850000     4.7251790000 
*
