! RI PBE def2-SVP def2-SVP/J NBO PAL2
% maxcore 2000
% output
    # printlevel mini
    print[ P_Basis ] 0
    print[ P_SCFInfo ] 1
    print[ P_SCFIterInfo ] 1
    print[ P_OrbEn ] 0
    print[ P_Cartesian ] 0
end
*xyz 0 1
 N        3.0306950000    -0.2143280000    -1.3118240000 
 C        2.7888030000    -0.1844330000     0.1205250000 
 C        3.0847080000     1.1667260000     0.6953400000 
 C        3.0807340000     2.3483350000     0.0032810000 
 S        3.4452330000     3.6151750000     1.0644040000 
 N        3.6084560000     2.6746350000     2.3933970000 
 C        3.3969050000     1.4244210000     2.0535230000 
 H        2.7252960000    -1.0944160000    -1.7060470000 
 H        4.0211750000    -0.1242400000    -1.5043420000 
 H        3.3563370000    -0.9368320000     0.6896140000 
 H        1.7300080000    -0.4166600000     0.2826380000 
 H        2.8805680000     2.4872540000    -1.0487810000 
 H        3.4737720000     0.6604620000     2.8213700000 
*
