! RI PBE def2-SVP def2-SVP/J NBO PAL2
% maxcore 2000
% output
    # printlevel mini
    print[ P_Basis ] 0
    print[ P_SCFInfo ] 1
    print[ P_SCFIterInfo ] 1
    print[ P_OrbEn ] 0
    print[ P_Cartesian ] 0
end
*xyz 0 1
 N        0.9194320000    -0.1028450000    -0.0440460000 
 C        2.0702340000    -0.0854380000    -0.0407860000 
 C        3.4937400000    -0.0240330000    -0.0368960000 
 C        4.2019550000     1.1469010000    -0.0388010000 
 S        5.8617010000     0.7989180000    -0.0328530000 
 C        5.4963920000    -0.8805860000    -0.0282470000 
 N        4.2369400000    -1.1712680000    -0.0308920000 
 H        3.8195760000     2.1553800000    -0.0432980000 
 H        6.2845390000    -1.6217290000    -0.0234820000 
*
