! RI PBE def2-SVP def2-SVP/J NBO PAL2
% maxcore 2000
% output
    # printlevel mini
    print[ P_Basis ] 0
    print[ P_SCFInfo ] 1
    print[ P_SCFIterInfo ] 1
    print[ P_OrbEn ] 0
    print[ P_Cartesian ] 0
end
*xyz 0 1
 N        3.5360740000    -0.2852080000    -0.9077380000 
 C        2.5296650000     0.1897070000     0.0311980000 
 C        2.9231950000    -0.1666840000     1.4271880000 
 C        3.0995170000     0.6944980000     2.4679180000 
 S        3.5330810000    -0.1680480000     3.8740820000 
 C        3.4575510000    -1.6259800000     2.9774920000 
 N        3.1303640000    -1.4843820000     1.7325450000 
 H        3.1994410000    -0.1927250000    -1.8581380000 
 H        3.6967420000    -1.2722960000    -0.7412430000 
 H        1.5260970000    -0.2278880000    -0.1502530000 
 H        2.4455510000     1.2764540000    -0.0506320000 
 H        3.0056040000     1.7692030000     2.4697040000 
 H        3.6686090000    -2.5797400000     3.4430860000 
*
