! RI PBE def2-SVP def2-SVP/J NBO PAL2
% maxcore 2000
% output
    # printlevel mini
    print[ P_Basis ] 0
    print[ P_SCFInfo ] 1
    print[ P_SCFIterInfo ] 1
    print[ P_OrbEn ] 0
    print[ P_Cartesian ] 0
end
*xyz 0 1
 N        0.9385320000     0.1189250000     0.0701250000 
 C        2.0891000000     0.0733910000     0.0666210000 
 C        3.5044580000    -0.0319030000     0.0625010000 
 N        4.3177470000     0.9875560000     0.0573890000 
 C        5.6027610000     0.5611920000     0.0545130000 
 C        5.7791700000    -0.7932870000     0.0574430000 
 S        4.2730250000    -1.5741500000     0.0643660000 
 H        6.4033490000     1.2884900000     0.0501200000 
 H        6.7030690000    -1.3509240000     0.0560020000 
*
