! RI PBE def2-SVP def2-SVP/J NBO PAL2
% maxcore 2000
% output
    # printlevel mini
    print[ P_Basis ] 0
    print[ P_SCFInfo ] 1
    print[ P_SCFIterInfo ] 1
    print[ P_OrbEn ] 0
    print[ P_Cartesian ] 0
end
*xyz 0 1
 N        3.4218210000    -0.2445530000    -1.0288100000 
 C        2.3474530000    -0.0613070000    -0.0605240000 
 C        2.8297510000    -0.2858650000     1.3358520000 
 N        2.9975870000     0.6526470000     2.2148930000 
 C        3.4616650000     0.1494130000     3.3934840000 
 C        3.6555660000    -1.1955120000     3.4284330000 
 S        3.2284460000    -1.8652600000     1.9192310000 
 H        3.0863960000    -0.0337440000    -1.9606670000 
 H        3.7359510000    -1.2074780000    -1.0376790000 
 H        1.4689580000    -0.6996290000    -0.2421350000 
 H        2.0139000000     0.9770410000    -0.1022160000 
 H        3.6486050000     0.8212490000     4.2209000000 
 H        4.0138910000    -1.8060130000     4.2423470000 
*
