! RI PBE def2-SVP def2-SVP/J NBO PAL2
% maxcore 2000
% output
    # printlevel mini
    print[ P_Basis ] 0
    print[ P_SCFInfo ] 1
    print[ P_SCFIterInfo ] 1
    print[ P_OrbEn ] 0
    print[ P_Cartesian ] 0
end
*xyz 0 1
 N        2.4690450000    -1.4791600000     0.0420840000 
 C        2.4852530000    -0.1385630000    -0.1370670000 
 S        1.9326810000     0.9273370000     1.0183330000 
 N        2.9756450000     0.2793830000    -1.3069900000 
 C        3.1418600000     1.6202520000    -1.8301650000 
 C        3.7310140000     0.9920570000    -3.1160120000 
 C        3.5167300000    -0.3962390000    -2.4768370000 
 H        2.1063890000    -1.8249230000     0.9104580000 
 H        2.8005390000    -2.1255840000    -0.6512630000 
 H        3.8241130000     2.2340170000    -1.2372450000 
 H        2.1985070000     2.1592430000    -1.9454660000 
 H        4.7721870000     1.2429310000    -3.3083400000 
 H        3.1461210000     1.1677650000    -4.0165660000 
 H        4.4309650000    -0.9667790000    -2.2779630000 
 H        2.7960500000    -1.0425270000    -2.9904710000 
*
