! RI PBE def2-SVP def2-SVP/J NBO PAL2
% maxcore 2000
% output
    # printlevel mini
    print[ P_Basis ] 0
    print[ P_SCFInfo ] 1
    print[ P_SCFIterInfo ] 1
    print[ P_OrbEn ] 0
    print[ P_Cartesian ] 0
end
*xyz 0 1
 N        2.7501900000    -1.3531380000     0.7379650000 
 C        2.4448840000    -0.2514990000     0.0241690000 
 S        0.9598630000    -0.0315780000    -0.6913120000 
 N        3.4249940000     0.6792910000    -0.0681590000 
 C        4.6430740000     0.6581810000     0.6640230000 
 C        5.7606110000    -0.2429020000     0.2046060000 
 C        5.8526940000     1.2370900000     0.0104050000 
 H        2.0776560000    -2.0977050000     0.7281880000 
 H        3.6955550000    -1.5411480000     1.0258190000 
 H        3.1308360000     1.5370100000    -0.5055540000 
 H        4.5486470000     0.8075920000     1.7379790000 
 H        5.5732500000    -0.8459940000    -0.6749140000 
 H        6.3863740000    -0.7037800000     0.9590390000 
 H        5.7332130000     1.6127330000    -0.9981440000 
 H        6.5377400000     1.8011480000     0.6294810000 
*
