! RI PBE def2-SVP def2-SVP/J NBO PAL2
% maxcore 2000
% output
    # printlevel mini
    print[ P_Basis ] 0
    print[ P_SCFInfo ] 1
    print[ P_SCFIterInfo ] 1
    print[ P_OrbEn ] 0
    print[ P_Cartesian ] 0
end
*xyz 0 1
 N        2.2730580000    -0.8094250000     0.5336840000 
 C        2.0105110000     0.4181840000     1.0424080000 
 S        0.4557540000     0.9362980000     1.3310760000 
 N        3.0793510000     1.1861470000     1.3308140000 
 C        4.4701780000     0.8352480000     1.1502920000 
 C        5.3428610000     1.6946190000     2.0051380000 
 C        6.2925050000     2.4874720000     1.5329420000 
 H        1.4683680000    -1.3306490000     0.2342180000 
 H        3.1535810000    -1.0183570000     0.0950020000 
 H        2.8523460000     2.1108940000     1.6561380000 
 H        4.7792550000     0.9263810000     0.0996980000 
 H        4.6061150000    -0.2115740000     1.4495970000 
 H        5.1565250000     1.6406690000     3.0753100000 
 H        6.4906040000     2.5629780000     0.4682330000 
 H        6.9097980000     3.0857040000     2.1924600000 
*
