! RI PBE def2-SVP def2-SVP/J NBO PAL2
% maxcore 2000
% output
    # printlevel mini
    print[ P_Basis ] 0
    print[ P_SCFInfo ] 1
    print[ P_SCFIterInfo ] 1
    print[ P_OrbEn ] 0
    print[ P_Cartesian ] 0
end
*xyz 0 1
 N        3.9034510000    -1.5538440000    -0.2023910000 
 C        2.8587560000    -0.7005690000    -0.0790110000 
 S        1.2985750000    -1.2357790000     0.1199800000 
 N        3.1624800000     0.6129370000    -0.1007530000 
 C        4.5006750000     1.1614160000    -0.1350030000 
 C        4.4760050000     2.6046760000     0.0199200000 
 C        4.4448560000     3.7958730000     0.1476650000 
 H        3.6598530000    -2.5239350000    -0.2956780000 
 H        4.7897870000    -1.2589710000    -0.5753670000 
 H        2.3866260000     1.2377670000     0.0363830000 
 H        4.9958420000     0.9241440000    -1.0877490000 
 H        5.1121190000     0.7266960000     0.6672980000 
 H        4.4196740000     4.8541790000     0.2626150000 
*
