! RI PBE def2-SVP def2-SVP/J NBO PAL2
% maxcore 2000
% output
    # printlevel mini
    print[ P_Basis ] 0
    print[ P_SCFInfo ] 1
    print[ P_SCFIterInfo ] 1
    print[ P_OrbEn ] 0
    print[ P_Cartesian ] 0
end
*xyz 0 1
 N        1.1395920000    -0.1090100000     0.2742700000 
 S        2.7788150000     0.0183550000     0.4123930000 
 O        3.1859410000     1.2182380000    -0.2579050000 
 O        3.1149360000    -0.2286830000     1.7818020000 
 C        3.3475030000    -1.3641220000    -0.5679760000 
 C        4.8332140000    -1.3687140000    -0.6739150000 
 C        5.6013980000    -2.3231030000    -0.1709330000 
 H        0.7466590000     0.6761620000    -0.2268610000 
 H        0.7066970000    -0.2572930000     1.1756530000 
 H        2.8683500000    -1.2399900000    -1.5428370000 
 H        2.9620680000    -2.2656550000    -0.0894830000 
 H        5.2759470000    -0.5249060000    -1.1945690000 
 H        5.1824770000    -3.1695390000     0.3634840000 
 H        6.6792220000    -2.2897300000    -0.2751110000 
*
