! RI PBE def2-SVP def2-SVP/J NBO PAL2
% maxcore 2000
% output
    # printlevel mini
    print[ P_Basis ] 0
    print[ P_SCFInfo ] 1
    print[ P_SCFIterInfo ] 1
    print[ P_OrbEn ] 0
    print[ P_Cartesian ] 0
end
*xyz 0 1
 N        1.1469540000     0.0353110000     0.2110010000 
 S        2.7704860000     0.1389380000    -0.0485280000 
 O        3.0894800000    -0.6822930000    -1.1737700000 
 O        3.1398660000     1.5178210000     0.0193240000 
 C        3.3961320000    -0.6764220000     1.4286730000 
 C        4.8388950000    -0.7186790000     1.4462320000 
 C        6.0366550000    -0.7515630000     1.4580440000 
 H        0.6921640000    -0.5338940000    -0.4897940000 
 H        0.7261180000     0.9485940000     0.3146830000 
 H        2.9604180000    -1.6783650000     1.4304530000 
 H        2.9958490000    -0.1166960000     2.2773390000 
 H        7.1007840000    -0.7784500000     1.4622420000 
*
