! RI PBE def2-SVP def2-SVP/J NBO PAL2
% maxcore 2000
% output
    # printlevel mini
    print[ P_Basis ] 0
    print[ P_SCFInfo ] 1
    print[ P_SCFIterInfo ] 1
    print[ P_OrbEn ] 0
    print[ P_Cartesian ] 0
end
*xyz 0 1
 O        0.8923270000     0.4879270000     0.0338840000 
 C        2.2423390000     0.2492250000    -0.0687980000 
 C        3.0965060000     1.1409210000     0.8396600000 
 C        4.0996220000     0.0764640000     1.3248620000 
 S        2.9660300000    -1.2193740000     0.7893010000 
 O        2.1249380000    -1.6489880000     1.8709820000 
 O        3.5616930000    -2.1786200000    -0.0990220000 
 H        0.4136980000    -0.0547790000    -0.5992800000 
 H        2.6074070000     0.2144860000    -1.1026870000 
 H        2.4713320000     1.4957060000     1.6591700000 
 H        3.5471740000     1.9922010000     0.3319530000 
 H        4.3125170000     0.0556800000     2.3912550000 
 H        5.0185350000     0.0256610000     0.7420990000 
*
