! RI PBE def2-SVP def2-SVP/J NBO PAL2
% maxcore 2000
% output
    # printlevel mini
    print[ P_Basis ] 0
    print[ P_SCFInfo ] 1
    print[ P_SCFIterInfo ] 1
    print[ P_OrbEn ] 0
    print[ P_Cartesian ] 0
end
*xyz 0 1
 O        1.0107930000    -0.0993950000     0.3145030000 
 C        2.3968700000    -0.0339480000     0.1338570000 
 C        3.1183420000     1.1200280000     0.8811670000 
 S        4.3465790000    -0.0578720000     1.4510380000 
 O        4.5388720000    -0.0711520000     2.8706960000 
 O        5.4752710000    -0.0643240000     0.5618080000 
 C        3.0898390000    -1.1975620000     0.8657590000 
 H        0.5921260000     0.5830320000    -0.2169430000 
 H        2.6663370000    -0.0303510000    -0.9265630000 
 H        2.5255040000     1.4779970000     1.7236180000 
 H        3.5200800000     1.9403800000     0.2900950000 
 H        2.4823300000    -1.5481090000     1.7008810000 
 H        3.4632480000    -2.0242140000     0.2662870000 
*
