! RI PBE def2-SVP def2-SVP/J NBO PAL2
% maxcore 2000
% output
    # printlevel mini
    print[ P_Basis ] 0
    print[ P_SCFInfo ] 1
    print[ P_SCFIterInfo ] 1
    print[ P_OrbEn ] 0
    print[ P_Cartesian ] 0
end
*xyz 0 1
 O        1.0848680000     0.0982800000     0.4058580000 
 C        2.3217960000    -0.2516140000    -0.1683570000 
 C        2.8028480000     0.8922060000    -0.9951590000 
 C        2.1933810000     2.0980150000    -1.2011130000 
 C        2.9793240000     2.9079100000    -2.0520010000 
 N        4.1071700000     2.3960650000    -2.4828690000 
 S        4.2693310000     0.8851260000    -1.8659510000 
 H        0.7761380000    -0.6407170000     0.9346050000 
 H        2.2267630000    -1.1440560000    -0.8029320000 
 H        3.0683260000    -0.4800520000     0.6054010000 
 H        1.2443180000     2.3741580000    -0.7656620000 
 H        2.7138370000     3.9113890000    -2.3675110000 
*
