! RI PBE def2-SVP def2-SVP/J NBO PAL2
% maxcore 2000
% output
    # printlevel mini
    print[ P_Basis ] 0
    print[ P_SCFInfo ] 1
    print[ P_SCFIterInfo ] 1
    print[ P_OrbEn ] 0
    print[ P_Cartesian ] 0
end
*xyz 0 1
 O        1.4210130000    -0.8523120000    -0.5658360000 
 C        2.3608130000     0.0284090000     0.0225770000 
 C        2.8292710000     1.0018250000    -1.0066670000 
 C        2.8339380000     2.3566460000    -0.8393180000 
 S        3.4738410000     3.1646290000    -2.1970170000 
 C        3.7386510000     1.6944010000    -3.0223180000 
 C        3.3528060000     0.6253350000    -2.2736760000 
 H        1.2510780000    -1.5675610000     0.0516600000 
 H        3.2227180000    -0.5359220000     0.4072710000 
 H        1.9211540000     0.5747180000     0.8670130000 
 H        2.4869740000     2.9166460000     0.0165250000 
 H        4.1625980000     1.6959710000    -4.0149760000 
 H        3.4192430000    -0.4007850000    -2.6099490000 
*
