! RI PBE def2-SVP def2-SVP/J NBO PAL2
% maxcore 2000
% output
    # printlevel mini
    print[ P_Basis ] 0
    print[ P_SCFInfo ] 1
    print[ P_SCFIterInfo ] 1
    print[ P_OrbEn ] 0
    print[ P_Cartesian ] 0
end
*xyz 0 1
 O        2.4511270000    -1.1784410000     0.3188340000 
 C        2.2267360000    -0.0184160000     0.0921140000 
 C        2.8892820000     0.7433660000    -0.9850240000 
 N        2.5646350000     2.0143600000    -1.1426700000 
 S        3.4180660000     2.6329450000    -2.3789990000 
 C        4.2565280000     1.2019190000    -2.7437090000 
 C        3.8573050000     0.2262970000    -1.8792950000 
 H        1.4986470000     0.5712820000     0.6814230000 
 H        4.9783100000     1.1392500000    -3.5450980000 
 H        4.2134630000    -0.7935620000    -1.8624760000 
*
