! RI PBE def2-SVP def2-SVP/J NBO PAL2
% maxcore 2000
% output
    # printlevel mini
    print[ P_Basis ] 0
    print[ P_SCFInfo ] 1
    print[ P_SCFIterInfo ] 1
    print[ P_OrbEn ] 0
    print[ P_Cartesian ] 0
end
*xyz 0 1
 O        0.9817570000    -0.6159680000     0.0466150000 
 C        2.2068170000     0.0835090000     0.1429620000 
 C        2.7118040000     0.3882040000    -1.2200210000 
 C        3.0583640000     1.5990490000    -1.7406180000 
 N        3.5311130000     1.5994730000    -3.0183280000 
 C        3.5445020000     0.3912390000    -3.4870430000 
 S        2.9869030000    -0.8186410000    -2.4073970000 
 H        0.7500490000    -0.9427100000     0.9194670000 
 H        2.9485580000    -0.5129910000     0.6917400000 
 H        2.0874740000     1.0356580000     0.6769810000 
 H        2.9779720000     2.5357030000    -1.2026900000 
 H        3.8639760000     0.1360840000    -4.4891780000 
*
