! RI PBE def2-SVP def2-SVP/J NBO PAL2
% maxcore 2000
% output
    # printlevel mini
    print[ P_Basis ] 0
    print[ P_SCFInfo ] 1
    print[ P_SCFIterInfo ] 1
    print[ P_OrbEn ] 0
    print[ P_Cartesian ] 0
end
*xyz 0 1
 O        1.2880700000     0.3411000000     0.5779530000 
 C        2.3577190000    -0.2756620000    -0.1006640000 
 C        2.8387980000     0.6344520000    -1.1811170000 
 C        2.3253390000     1.8684410000    -1.4677680000 
 S        3.1820380000     2.5341380000    -2.7679510000 
 N        4.1956460000     1.2643070000    -2.9633840000 
 C        3.9040330000     0.3480940000    -2.0705970000 
 H        0.9845190000    -0.2494160000     1.2704220000 
 H        2.0450840000    -1.2319590000    -0.5446900000 
 H        3.1884200000    -0.4935670000     0.5862630000 
 H        1.5091660000     2.3691980000    -0.9699030000 
 H        4.4870670000    -0.5679260000    -2.0617850000 
*
