! RI PBE def2-SVP def2-SVP/J NBO PAL2
% maxcore 2000
% output
    # printlevel mini
    print[ P_Basis ] 0
    print[ P_SCFInfo ] 1
    print[ P_SCFIterInfo ] 1
    print[ P_OrbEn ] 0
    print[ P_Cartesian ] 0
end
*xyz 0 1
 O        2.2986210000    -1.1652240000     0.4586830000 
 C        2.0409460000    -0.0331780000     0.1408600000 
 C        2.7645890000     0.7106620000    -0.8956180000 
 N        2.4719260000     1.9382790000    -1.2288950000 
 C        3.2966670000     2.3749760000    -2.2077360000 
 C        4.2331050000     1.4705790000    -2.6298860000 
 S        4.0765350000     0.0171150000    -1.7693700000 
 H        1.2252480000     0.5499520000     0.6085260000 
 H        3.1846320000     3.3779520000    -2.5976970000 
 H        4.9873210000     1.5985880000    -3.3914670000 
*
