! RI PBE def2-SVP def2-SVP/J NBO PAL2
% maxcore 2000
% output
    # printlevel mini
    print[ P_Basis ] 0
    print[ P_SCFInfo ] 1
    print[ P_SCFIterInfo ] 1
    print[ P_OrbEn ] 0
    print[ P_Cartesian ] 0
end
*xyz 0 1
 O        2.8740400000    -0.7343340000    -0.8255540000 
 C        2.2987300000    -0.0303010000    -0.0688150000 
 S        3.1170560000     1.1713710000     1.0539700000 
 O        2.7046120000     2.4734320000     0.6277660000 
 O        2.8676840000     0.7174540000     2.3877330000 
 C        4.7683040000     0.9556250000     0.6856480000 
 C        5.9277810000     0.7979560000     0.4206970000 
 H        1.2013920000     0.0120050000     0.0764420000 
 H        6.9600010000     0.6620030000     0.1892140000 
*
