! RI PBE def2-SVP def2-SVP/J NBO PAL2
% maxcore 2000
% output
    # printlevel mini
    print[ P_Basis ] 0
    print[ P_SCFInfo ] 1
    print[ P_SCFIterInfo ] 1
    print[ P_OrbEn ] 0
    print[ P_Cartesian ] 0
end
*xyz 0 1
 O        2.6886610000    -1.0880320000     0.7321610000 
 C        2.3629150000     0.1614870000     0.2275680000 
 S        3.0172940000     0.3829430000    -1.4350020000 
 O        2.7040520000    -0.8433000000    -2.1279890000 
 O        2.5592540000     1.6512270000    -1.9308580000 
 C        4.7626830000     0.4375270000    -1.2196730000 
 C        5.4377400000     1.5249900000    -1.5487490000 
 H        2.3903830000    -1.7473810000     0.0930710000 
 H        2.7823730000     0.9330500000     0.8739470000 
 H        1.2847920000     0.3329860000     0.1028190000 
 H        5.2043870000    -0.4818720000    -0.8537610000 
 H        4.9214210000     2.4031060000    -1.9208320000 
 H        6.5182550000     1.5587600000    -1.4671930000 
*
