! RI PBE def2-SVP def2-SVP/J NBO PAL2
% maxcore 2000
% output
    # printlevel mini
    print[ P_Basis ] 0
    print[ P_SCFInfo ] 1
    print[ P_SCFIterInfo ] 1
    print[ P_OrbEn ] 0
    print[ P_Cartesian ] 0
end
*xyz 0 1
 O        1.0472050000     0.0971430000    -0.1486500000 
 S        2.4849050000     0.0840980000    -0.1712280000 
 O        3.1654970000     0.2158210000    -1.4293860000 
 C        3.1039900000    -1.3419340000     0.7364850000 
 C        3.4434080000    -0.8501240000     2.1408900000 
 C        3.5321220000     0.6481760000     2.0972690000 
 C        3.0962280000     1.2431380000     0.9989500000 
 H        3.9870020000    -1.6833700000     0.1973640000 
 H        2.3324970000    -2.1094760000     0.7045780000 
 H        4.3831270000    -1.2835180000     2.4920400000 
 H        2.6761020000    -1.1446180000     2.8641110000 
 H        3.9141300000     1.1955590000     2.9522200000 
 H        3.0432070000     2.3006960000     0.7812750000 
*
