! RI PBE def2-SVP def2-SVP/J NBO PAL2
% maxcore 2000
% output
    # printlevel mini
    print[ P_Basis ] 0
    print[ P_SCFInfo ] 1
    print[ P_SCFIterInfo ] 1
    print[ P_OrbEn ] 0
    print[ P_Cartesian ] 0
end
*xyz 0 1
 O        1.0390260000    -0.0286020000     0.6069270000 
 S        2.3444280000     0.0717950000     0.0106200000 
 O        2.4742650000     0.2542790000    -1.4105010000 
 C        3.3023330000     1.3310910000     0.8758780000 
 C        4.6008200000     0.6447400000     1.2720560000 
 C        4.2319300000    -0.7902850000     1.6554170000 
 C        3.3597560000    -1.3252810000     0.5297040000 
 H        2.7114460000     1.6247910000     1.7444340000 
 H        3.4194340000     2.1783080000     0.2017370000 
 H        5.0927340000     1.1723280000     2.0911640000 
 H        5.2924500000     0.6362210000     0.4247460000 
 H        3.6714870000    -0.7908890000     2.5947060000 
 H        5.1158200000    -1.4138450000     1.8009480000 
 H        2.6882420000    -2.1336020000     0.8154320000 
 H        3.9474500000    -1.6191400000    -0.3409590000 
*
