! RI PBE def2-SVP def2-SVP/J NBO PAL2
% maxcore 2000
% output
    # printlevel mini
    print[ P_Basis ] 0
    print[ P_SCFInfo ] 1
    print[ P_SCFIterInfo ] 1
    print[ P_OrbEn ] 0
    print[ P_Cartesian ] 0
end
*xyz 0 1
 O        0.8963060000    -0.0064960000     0.1050930000 
 S        2.3161820000     0.0317590000     0.2379910000 
 O        2.9285880000    -0.0092650000     1.5258000000 
 C        2.9848580000     1.3717950000    -0.7159190000 
 C        3.6825280000     0.8518290000    -1.7149320000 
 C        3.6431540000    -0.6294700000    -1.6614950000 
 N        2.9861750000    -1.1829920000    -0.7227810000 
 H        2.8018790000     2.4026710000    -0.4521630000 
 H        4.2171580000     1.4003130000    -2.4786390000 
 H        4.1554730000    -1.2467340000    -2.3955560000 
*
