! RI PBE def2-SVP def2-SVP/J NBO PAL2
% maxcore 2000
% output
    # printlevel mini
    print[ P_Basis ] 0
    print[ P_SCFInfo ] 1
    print[ P_SCFIterInfo ] 1
    print[ P_OrbEn ] 0
    print[ P_Cartesian ] 0
end
*xyz 0 1
 O        1.0438190000     0.1179150000     0.3531700000 
 S        2.4605720000     0.1215470000     0.1500110000 
 O        3.3181300000     0.2303370000     1.2907280000 
 C        2.9712370000    -1.2302220000    -0.9270270000 
 C        3.4546700000    -0.5761580000    -2.1803350000 
 C        3.3723080000     0.7534980000    -2.1395150000 
 N        2.8652060000     1.2864530000    -0.9711470000 
 H        2.0945710000    -1.8675040000    -1.0644430000 
 H        3.7412940000    -1.7856260000    -0.3865630000 
 H        3.8288080000    -1.1368650000    -3.0224060000 
 H        3.6622720000     1.4368220000    -2.9260570000 
 H        2.7379200000     2.2634040000    -0.7785180000 
*
