! RI PBE def2-SVP def2-SVP/J NBO PAL2
% maxcore 2000
% output
    # printlevel mini
    print[ P_Basis ] 0
    print[ P_SCFInfo ] 1
    print[ P_SCFIterInfo ] 1
    print[ P_OrbEn ] 0
    print[ P_Cartesian ] 0
end
*xyz 0 1
 O        0.9589380000    -0.0500090000    -0.0103750000 
 S        2.3802300000     0.0872520000    -0.1295810000 
 O        2.9792640000     0.2455330000    -1.4188490000 
 C        3.0795410000     1.3404500000     0.9303770000 
 C        4.4517660000     0.7535310000     1.2150150000 
 C        4.2373440000    -0.7502210000     1.4661280000 
 N        3.0917960000    -1.1841810000     0.6641490000 
 H        2.4522020000     1.4101490000     1.8214100000 
 H        3.0934160000     2.2909480000     0.4000790000 
 H        4.9314920000     1.2254630000     2.0729490000 
 H        5.0940300000     0.9026080000     0.3454320000 
 H        4.0263380000    -0.9284570000     2.5244040000 
 H        5.1314380000    -1.3173120000     1.1999210000 
 H        2.3894040000    -1.7081450000     1.1659320000 
*
