! RI PBE def2-SVP def2-SVP/J NBO PAL2
% maxcore 2000
% output
    # printlevel mini
    print[ P_Basis ] 0
    print[ P_SCFInfo ] 1
    print[ P_SCFIterInfo ] 1
    print[ P_OrbEn ] 0
    print[ P_Cartesian ] 0
end
*xyz 0 1
 O        1.2638710000    -0.4894530000     0.6205130000 
 S        2.3796560000    -0.0626810000    -0.1631470000 
 O        2.2346120000     0.1724880000    -1.5593190000 
 C        3.2016270000     1.2844310000     0.7019930000 
 C        4.4602000000     0.6575040000     1.2982140000 
 C        4.2328920000    -0.8519140000     1.2602720000 
 O        3.5764630000    -1.1122650000     0.0156910000 
 H        2.4956180000     1.6414410000     1.4501020000 
 H        3.4040280000     2.0719170000    -0.0212110000 
 H        4.6520330000     1.0074000000     2.3131880000 
 H        5.3257710000     0.9058260000     0.6824180000 
 H        3.6019680000    -1.1962580000     2.0853610000 
 H        5.1587610000    -1.4238270000     1.2481160000 
*
