! RI PBE def2-SVP def2-SVP/J NBO PAL2
% maxcore 2000
% output
    # printlevel mini
    print[ P_Basis ] 0
    print[ P_SCFInfo ] 1
    print[ P_SCFIterInfo ] 1
    print[ P_OrbEn ] 0
    print[ P_Cartesian ] 0
end
*xyz 0 1
 O        0.9493430000    -0.0119530000     0.2646400000 
 S        2.3772820000     0.0223580000     0.3906590000 
 O        2.9843860000    -0.0107330000     1.6892730000 
 C        3.0783160000     1.2902390000    -0.6118320000 
 C        3.7645540000     0.7193270000    -1.5916130000 
 N        3.7960480000    -0.7136640000    -1.6353750000 
 C        3.1325060000    -1.2129850000    -0.6870970000 
 H        2.9270870000     2.3362840000    -0.3967020000 
 H        4.3092150000     1.2359430000    -2.3700880000 
 H        3.0072520000    -2.2758270000    -0.5072650000 
*
