! RI PBE def2-SVP def2-SVP/J NBO PAL2
% maxcore 2000
% output
    # printlevel mini
    print[ P_Basis ] 0
    print[ P_SCFInfo ] 1
    print[ P_SCFIterInfo ] 1
    print[ P_OrbEn ] 0
    print[ P_Cartesian ] 0
end
*xyz 0 1
 O        0.9458790000    -0.0596530000     0.7235160000 
 S        2.1602540000     0.0276340000    -0.0477640000 
 O        2.1027990000     0.1388850000    -1.4802990000 
 C        3.1962920000     1.3189730000     0.6771330000 
 C        4.3587120000     0.5644720000     1.3357780000 
 N        3.9599820000    -0.8116120000     1.6318410000 
 C        3.2716970000    -1.3129030000     0.4808410000 
 H        2.5705790000     1.8430130000     1.3988730000 
 H        3.4991920000     1.9971170000    -0.1189870000 
 H        4.6923860000     1.0558380000     2.2495290000 
 H        5.2113090000     0.5254680000     0.6520570000 
 H        3.3506510000    -0.8393730000     2.4413510000 
 H        2.6697170000    -2.1963440000     0.6868590000 
 H        3.9626520000    -1.5035960000    -0.3448280000 
*
