! RI PBE def2-SVP def2-SVP/J NBO PAL2
% maxcore 2000
% output
    # printlevel mini
    print[ P_Basis ] 0
    print[ P_SCFInfo ] 1
    print[ P_SCFIterInfo ] 1
    print[ P_OrbEn ] 0
    print[ P_Cartesian ] 0
end
*xyz 0 1
 O        0.8133600000     0.0182460000     0.4162700000 
 S        2.1761820000     0.0628070000    -0.0337350000 
 O        2.4769530000     0.1431350000    -1.4373680000 
 C        3.0851190000     1.3243210000     0.8732390000 
 C        4.2850500000     0.5637260000     1.4105200000 
 O        3.8207790000    -0.7250060000     1.7922480000 
 C        3.1534100000    -1.2917390000     0.7114080000 
 H        2.4377840000     1.6817060000     1.6730480000 
 H        3.3337200000     2.1268260000     0.1807740000 
 H        4.7089600000     1.0287040000     2.2993410000 
 H        5.0681450000     0.4732100000     0.6465420000 
 H        2.4813140000    -2.0765120000     1.0546970000 
 H        3.8331330000    -1.6529440000    -0.0699950000 
*
