! RI PBE def2-SVP def2-SVP/J NBO PAL2
% maxcore 2000
% output
    # printlevel mini
    print[ P_Basis ] 0
    print[ P_SCFInfo ] 1
    print[ P_SCFIterInfo ] 1
    print[ P_OrbEn ] 0
    print[ P_Cartesian ] 0
end
*xyz 0 1
 O        1.0743650000     0.0515480000    -0.2381750000 
 S        2.5006340000    -0.0317050000    -0.2505840000 
 O        3.1878320000    -0.0531210000    -1.5077710000 
 N        3.0282820000    -1.3333420000     0.6505720000 
 C        3.4369440000    -0.9121270000     1.9841360000 
 C        3.5322980000     0.5864490000     1.9866550000 
 C        3.1185900000     1.1676580000     0.8739670000 
 H        3.7678560000    -1.7877240000     0.1314370000 
 H        4.3939650000    -1.3719770000     2.2435740000 
 H        2.7082140000    -1.2383720000     2.7351620000 
 H        3.8715170000     1.1204190000     2.8665980000 
 H        3.0418840000     2.2201950000     0.6434300000 
*
