! RI PBE def2-SVP def2-SVP/J NBO PAL2
% maxcore 2000
% output
    # printlevel mini
    print[ P_Basis ] 0
    print[ P_SCFInfo ] 1
    print[ P_SCFIterInfo ] 1
    print[ P_OrbEn ] 0
    print[ P_Cartesian ] 0
end
*xyz 0 1
 O        1.0073760000     0.1896650000    -0.3077600000 
 S        2.4210590000     0.0800350000    -0.1662260000 
 O        3.2314510000    -0.0241860000    -1.3336770000 
 O        2.7505280000    -1.1569790000     0.8057520000 
 C        3.3525880000    -0.7788320000     2.0334970000 
 C        3.4973510000     0.7060990000     2.0375530000 
 C        3.0467430000     1.2829680000     0.9396650000 
 H        4.3238510000    -1.2775310000     2.1144790000 
 H        2.7161880000    -1.1227980000     2.8552670000 
 H        3.9362610000     1.2228960000     2.8818370000 
 H        3.0224930000     2.3279630000     0.6690130000 
*
