! RI PBE def2-SVP def2-SVP/J NBO PAL2
% maxcore 2000
% output
    # printlevel mini
    print[ P_Basis ] 0
    print[ P_SCFInfo ] 1
    print[ P_SCFIterInfo ] 1
    print[ P_OrbEn ] 0
    print[ P_Cartesian ] 0
end
*xyz 0 1
 O        1.0612740000     0.0394680000     0.1278340000 
 S        2.4769410000    -0.0310270000    -0.0028430000 
 O        3.0889420000    -0.6407580000    -1.1341430000 
 C        3.1070690000     1.5484430000     0.1582230000 
 C        3.5258220000     2.6710970000     0.2259960000 
 C        3.1067700000    -0.7652280000     1.4049800000 
 C        3.5252770000    -1.3260740000     2.3799700000 
 H        3.8969200000     3.6687870000     0.2869320000 
 H        3.8964840000    -1.8241080000     3.2465620000 
*
