! RI PBE def2-SVP def2-SVP/J NBO PAL2
% maxcore 2000
% output
    # printlevel mini
    print[ P_Basis ] 0
    print[ P_SCFInfo ] 1
    print[ P_SCFIterInfo ] 1
    print[ P_OrbEn ] 0
    print[ P_Cartesian ] 0
end
*xyz 0 1
 O        1.0379460000     0.0155800000    -0.0823600000 
 S        2.4464260000     0.1858070000    -0.0925890000 
 O        3.0709240000     1.3794400000    -0.5373330000 
 C        3.0720090000    -0.2397540000     1.4272020000 
 C        3.4979510000    -0.5115380000     2.5154360000 
 C        3.1067630000    -1.1179760000    -1.0492030000 
 N        3.5266060000    -1.9640410000    -1.7062580000 
 H        3.8771760000    -0.7535180000     3.4830150000 
*
