! RI PBE def2-SVP def2-SVP/J NBO PAL2
% maxcore 2000
% output
    # printlevel mini
    print[ P_Basis ] 0
    print[ P_SCFInfo ] 1
    print[ P_SCFIterInfo ] 1
    print[ P_OrbEn ] 0
    print[ P_Cartesian ] 0
end
*xyz 0 1
 O        3.5138760000     1.0671880000     0.4333570000 
 S        2.4149910000    -0.0388610000     0.0962660000 
 O        1.4442830000     0.0576030000     1.1296910000 
 O        2.0641700000     0.1092410000    -1.2840350000 
 C        3.3076900000    -1.5280790000     0.2930390000 
 C        2.8509890000    -2.7175060000    -0.4955560000 
 C        4.1380760000    -2.0463620000    -0.8400060000 
 H        3.9234720000     1.3508450000    -0.3943810000 
 H        3.6412000000    -1.6652550000     1.3139590000 
 H        2.0210600000    -2.5711080000    -1.1746320000 
 H        2.8721690000    -3.6713420000     0.0148950000 
 H        4.1552870000    -1.4625150000    -1.7515860000 
 H        5.0707460000    -2.5280600000    -0.5759190000 
*
