! RI PBE def2-SVP def2-SVP/J NBO PAL2
% maxcore 2000
% output
    # printlevel mini
    print[ P_Basis ] 0
    print[ P_SCFInfo ] 1
    print[ P_SCFIterInfo ] 1
    print[ P_OrbEn ] 0
    print[ P_Cartesian ] 0
end
*xyz 0 1
 O        1.1925920000    -0.0917620000     0.2678770000 
 S        2.7547900000     0.0819210000    -0.0201060000 
 O        2.9029810000     0.2704380000    -1.4297850000 
 O        3.2521930000     1.0338680000     0.9131340000 
 C        3.3533050000    -1.5307670000     0.4498510000 
 C        4.8433730000    -1.5673370000     0.4423820000 
 C        5.5515880000    -2.3170360000    -0.3881650000 
 H        0.7356690000    -0.0947540000    -0.5837060000 
 H        2.9181420000    -2.2457860000    -0.2498710000 
 H        2.9444520000    -1.7025470000     1.4493100000 
 H        5.3383730000    -0.9299090000     1.1684660000 
 H        5.0774850000    -2.9530600000    -1.1285800000 
 H        6.6343550000    -2.3201690000    -0.3559150000 
*
