! RI PBE def2-SVP def2-SVP/J NBO PAL2
% maxcore 2000
% output
    # printlevel mini
    print[ P_Basis ] 0
    print[ P_SCFInfo ] 1
    print[ P_SCFIterInfo ] 1
    print[ P_OrbEn ] 0
    print[ P_Cartesian ] 0
end
*xyz 0 1
 S        0.7656180000    -0.1238790000     0.0164150000 
 C        2.4255990000    -0.1055030000     0.0099570000 
 N        3.1421400000     1.0309700000    -0.0008610000 
 C        4.5898590000     1.1742010000    -0.0077020000 
 C        5.2490040000    -0.1636790000    -0.0003020000 
 C        4.5302110000    -1.2802410000     0.0104910000 
 N        3.1467400000    -1.2589530000     0.0154210000 
 H        2.5763100000     1.8628440000    -0.0046570000 
 H        4.9032500000     1.7615320000     0.8663400000 
 H        4.8962970000     1.7483820000    -0.8928870000 
 H        6.3288310000    -0.2091000000    -0.0039400000 
 H        4.9783870000    -2.2652080000     0.0160360000 
 H        2.6067340000    -2.1056670000     0.0236000000 
*
